@<TRIPOS>MOLECULE
S-propyl
   34    33     1     0     0
SMALL
No Charge or Current Charge


@<TRIPOS>ATOM
      1 C1          0.5640   -0.4710   -1.7460 c3        1 MOL     -0.094900
      2 C2          0.3960   -0.2380   -0.2520 c3        1 MOL     -0.096200
      3 C3         -0.9770   -0.6580    0.2590 c3        1 MOL      0.093800
      4 N1         -1.1300   -0.4300    1.6970 n         1 MOL     -0.469100
      5 C4         -1.6470    0.8390    2.1960 c3        1 MOL      0.093800
      6 C5         -3.1570    0.8140    2.3280 c3        1 MOL     -0.096200
      7 C6         -3.7310    2.1250    2.8470 c3        1 MOL     -0.094900
      8 C7         -0.7820   -1.4290    2.6200 c         1 MOL      0.695700
      9 O1         -0.8860   -1.3050    3.8380 o         1 MOL     -0.599500
     10 S1         -0.1360   -2.9330    1.9400 ss        1 MOL     -0.284200
     11 C8          0.1600   -3.8890    3.4430 c3        1 MOL      0.006600
     12 C9          0.7350   -5.2640    3.1080 c3        1 MOL     -0.074700
     13 C10         0.9890   -6.0820    4.3660 c3        1 MOL     -0.090800
     14 H1          1.5590   -0.1600   -2.0830 hc        1 MOL      0.038000
     15 H2          0.4470   -1.5350   -1.9770 hc        1 MOL      0.038000
     16 H3         -0.1840    0.0810   -2.3230 hc        1 MOL      0.038000
     17 H4          0.5390    0.8300   -0.0460 hc        1 MOL      0.044800
     18 H5          1.1810   -0.7800    0.2880 hc        1 MOL      0.044800
     19 H6         -1.7570   -0.0770   -0.2420 h1        1 MOL      0.057000
     20 H7         -1.1650   -1.7190    0.0660 h1        1 MOL      0.057000
     21 H8         -1.3320    1.5930    1.4770 h1        1 MOL      0.057000
     22 H9         -1.1530    1.0270    3.1470 h1        1 MOL      0.057000
     23 H10        -3.5820    0.6140    1.3380 hc        1 MOL      0.044800
     24 H11        -3.4720   -0.0030    2.9880 hc        1 MOL      0.044800
     25 H12        -4.8210    2.0710    2.9290 hc        1 MOL      0.038000
     26 H13        -3.3270    2.3460    3.8400 hc        1 MOL      0.038000
     27 H14        -3.4760    2.9610    2.1880 hc        1 MOL      0.038000
     28 H15        -0.7860   -3.9950    3.9890 h1        1 MOL      0.079100
     29 H16         0.8540   -3.3340    4.0870 h1        1 MOL      0.079100
     30 H17         0.0420   -5.8180    2.4630 hc        1 MOL      0.052200
     31 H18         1.6790   -5.1580    2.5610 hc        1 MOL      0.052200
     32 H19         1.4010   -7.0660    4.1180 hc        1 MOL      0.037800
     33 H20         1.7060   -5.5680    5.0140 hc        1 MOL      0.037800
     34 H21         0.0640   -6.2290    4.9320 hc        1 MOL      0.037800
@<TRIPOS>BOND
     1    1    2 1   
     2    2    3 1   
     3    3    4 1   
     4    4    5 1   
     5    5    6 1   
     6    6    7 1   
     7    4    8 1   
     8    8    9 2   
     9    8   10 1   
    10   10   11 1   
    11   11   12 1   
    12   12   13 1   
    13    1   14 1   
    14    1   15 1   
    15    1   16 1   
    16    2   17 1   
    17    2   18 1   
    18    3   19 1   
    19    3   20 1   
    20    5   21 1   
    21    5   22 1   
    22    6   23 1   
    23    6   24 1   
    24    7   25 1   
    25    7   26 1   
    26    7   27 1   
    27   11   28 1   
    28   11   29 1   
    29   12   30 1   
    30   12   31 1   
    31   13   32 1   
    32   13   33 1   
    33   13   34 1   
@<TRIPOS>SUBSTRUCTURE
     1 MOL         1 TEMP              0 ****  ****    0 ROOT
