@<TRIPOS>MOLECULE
indane
   19    20     1     0     0
SMALL
No Charge or Current Charge


@<TRIPOS>ATOM
      1 C1         -0.9110   -1.1190    1.6050 ca        1 MOL     -0.131500
      2 C2         -0.1940   -0.9900    0.4050 ca        1 MOL     -0.131500
      3 C3          0.2780   -2.1190   -0.2680 ca        1 MOL     -0.118200
      4 C4          0.0090   -3.3650    0.2730 ca        1 MOL     -0.087500
      5 C5         -0.7060   -3.4940    1.4690 ca        1 MOL     -0.087500
      6 C6         -1.1670   -2.3790    2.1500 ca        1 MOL     -0.118200
      7 C7         -0.8220   -4.9310    1.8680 c3        1 MOL     -0.036400
      8 C8         -0.5010   -5.6350    0.5410 c3        1 MOL     -0.080500
      9 C9          0.4390   -4.7030   -0.2380 c3        1 MOL     -0.036400
     10 H1         -1.2650   -0.2280    2.1180 ha        1 MOL      0.129300
     11 H2         -0.0010   -0.0000   -0.0010 ha        1 MOL      0.129300
     12 H3          0.8410   -2.0150   -1.1900 ha        1 MOL      0.131800
     13 H4         -1.7100   -2.4760    3.0830 ha        1 MOL      0.131800
     14 H5         -0.0760   -5.1710    2.6330 hc        1 MOL      0.053600
     15 H6         -1.8230   -5.1880    2.2250 hc        1 MOL      0.053600
     16 H7         -0.0740   -6.6310    0.6890 hc        1 MOL      0.045600
     17 H8         -1.4310   -5.7640   -0.0300 hc        1 MOL      0.045600
     18 H9          1.4860   -4.8880    0.0250 hc        1 MOL      0.053600
     19 H10         0.2980   -4.8060   -1.3180 hc        1 MOL      0.053600
@<TRIPOS>BOND
     1    1    6 ar  
     2    1    2 ar  
     3    2    3 ar  
     4    3    4 ar  
     5    4    9 1   
     6    4    5 ar  
     7    5    6 ar  
     8    5    7 1   
     9    7    8 1   
    10    8    9 1   
    11    1   10 1   
    12    2   11 1   
    13    3   12 1   
    14    6   13 1   
    15    7   14 1   
    16    7   15 1   
    17    8   16 1   
    18    8   17 1   
    19    9   18 1   
    20    9   19 1   
@<TRIPOS>SUBSTRUCTURE
     1 MOL         1 TEMP              0 ****  ****    0 ROOT
