@<TRIPOS>MOLECULE
N-butylbutan-1-amine
   28    27     1     0     0
SMALL
No Charge or Current Charge


@<TRIPOS>ATOM
      1 C1         -6.1940    2.7180    2.8470 c3        1 MOL     -0.092600
      2 C2         -4.8430    2.7600    2.1510 c3        1 MOL     -0.079400
      3 C3         -3.7320    3.1840    3.1150 c3        1 MOL     -0.083000
      4 C4         -2.3630    3.2360    2.4450 c3        1 MOL      0.171400
      5 N1         -1.3230    3.6340    3.3520 n3        1 MOL     -0.834400
      6 C5         -0.0170    3.6780    2.6920 c3        1 MOL      0.171400
      7 C6          1.0760    4.0990    3.6530 c3        1 MOL     -0.083000
      8 C7          2.4580    4.1550    2.9970 c3        1 MOL     -0.079400
      9 C8          3.5270    4.5810    3.9910 c3        1 MOL     -0.092600
     10 H1         -6.9840    2.4140    2.1520 hc        1 MOL      0.033600
     11 H2         -6.1740    2.0000    3.6730 hc        1 MOL      0.033600
     12 H3         -6.4560    3.6990    3.2560 hc        1 MOL      0.033600
     13 H4         -4.6200    1.7690    1.7400 hc        1 MOL      0.039100
     14 H5         -4.8990    3.4570    1.3080 hc        1 MOL      0.039100
     15 H6         -3.9720    4.1650    3.5430 hc        1 MOL      0.046000
     16 H7         -3.6860    2.4710    3.9460 hc        1 MOL      0.046000
     17 H8         -2.3590    3.9340    1.6020 h1        1 MOL      0.025500
     18 H9         -2.0940    2.2440    2.0670 h1        1 MOL      0.025500
     19 H10        -1.2650    2.9770    4.1380 hn        1 MOL      0.357800
     20 H11         0.1520    2.6880    2.2770 h1        1 MOL      0.025500
     21 H12        -0.1230    4.3940    1.8810 h1        1 MOL      0.025500
     22 H13         1.1070    3.4220    4.5160 hc        1 MOL      0.046000
     23 H14         0.8180    5.0950    4.0330 hc        1 MOL      0.046000
     24 H15         2.4440    4.8640    2.1600 hc        1 MOL      0.039100
     25 H16         2.7240    3.1740    2.5880 hc        1 MOL      0.039100
     26 H17         4.5120    4.6190    3.5150 hc        1 MOL      0.033600
     27 H18         3.3020    5.5760    4.3870 hc        1 MOL      0.033600
     28 H19         3.5790    3.8840    4.8340 hc        1 MOL      0.033600
@<TRIPOS>BOND
     1    1    2 1   
     2    2    3 1   
     3    3    4 1   
     4    4    5 1   
     5    5    6 1   
     6    6    7 1   
     7    7    8 1   
     8    8    9 1   
     9    1   10 1   
    10    1   11 1   
    11    1   12 1   
    12    2   13 1   
    13    2   14 1   
    14    3   15 1   
    15    3   16 1   
    16    4   17 1   
    17    4   18 1   
    18    5   19 1   
    19    6   20 1   
    20    6   21 1   
    21    7   22 1   
    22    7   23 1   
    23    8   24 1   
    24    8   25 1   
    25    9   26 1   
    26    9   27 1   
    27    9   28 1   
@<TRIPOS>SUBSTRUCTURE
     1 MOL         1 TEMP              0 ****  ****    0 ROOT
