@<TRIPOS>MOLECULE
2-methylbut-2-ene
   15    14     1     0     0
SMALL
No Charge or Current Charge


@<TRIPOS>ATOM
      1 C1         -0.9440   -0.4100    0.3920 c3        1 MOL     -0.059900
      2 C2         -1.3570    0.2480    1.6460 c2        1 MOL     -0.176700
      3 C3         -2.4530   -0.0040    2.3860 c2        1 MOL     -0.115400
      4 C4         -2.7320    0.7620    3.6500 c3        1 MOL     -0.060800
      5 C5         -3.4780   -1.0460    2.0350 c3        1 MOL     -0.060800
      6 H1         -1.3490    0.0990   -0.4960 hc        1 MOL      0.039600
      7 H2          0.1480   -0.4210    0.2570 hc        1 MOL      0.039600
      8 H3         -1.2930   -1.4500    0.3230 hc        1 MOL      0.039600
      9 H4         -0.6780    1.0250    1.9920 ha        1 MOL      0.114300
     10 H5         -3.3280    1.6530    3.4290 hc        1 MOL      0.040100
     11 H6         -3.2890    0.1380    4.3560 hc        1 MOL      0.040100
     12 H7         -1.8150    1.0900    4.1490 hc        1 MOL      0.040100
     13 H8         -3.2090   -2.0060    2.4860 hc        1 MOL      0.040100
     14 H9         -4.4620   -0.7500    2.4120 hc        1 MOL      0.040100
     15 H10        -3.5720   -1.2040    0.9570 hc        1 MOL      0.040100
@<TRIPOS>BOND
     1    1    2 1   
     2    2    3 2   
     3    3    4 1   
     4    3    5 1   
     5    1    6 1   
     6    1    7 1   
     7    1    8 1   
     8    2    9 1   
     9    4   10 1   
    10    4   11 1   
    11    4   12 1   
    12    5   13 1   
    13    5   14 1   
    14    5   15 1   
@<TRIPOS>SUBSTRUCTURE
     1 MOL         1 TEMP              0 ****  ****    0 ROOT
