@<TRIPOS>MOLECULE
hexylbenzene
   30    30     1     0     0
SMALL
No Charge or Current Charge


@<TRIPOS>ATOM
      1 C1          0.5660   -0.3060   -0.8830 c3        1 MOL     -0.092300
      2 C2         -0.1250    0.1510   -2.1590 c3        1 MOL     -0.079800
      3 C3         -1.5240   -0.4520   -2.2840 c3        1 MOL     -0.077500
      4 C4         -2.2160    0.0100   -3.5680 c3        1 MOL     -0.082500
      5 C5         -3.6160   -0.5930   -3.6930 c3        1 MOL     -0.071900
      6 C6         -4.3060   -0.1300   -4.9780 c3        1 MOL     -0.037500
      7 C7         -5.6780   -0.7130   -5.1130 ca        1 MOL     -0.076500
      8 C8         -5.8560   -1.9330   -5.7650 ca        1 MOL     -0.128300
      9 C9         -7.1350   -2.4770   -5.8910 ca        1 MOL     -0.128500
     10 C10        -8.2350   -1.8000   -5.3640 ca        1 MOL     -0.133800
     11 C11        -8.0570   -0.5800   -4.7120 ca        1 MOL     -0.128500
     12 C12        -6.7790   -0.0370   -4.5860 ca        1 MOL     -0.128300
     13 H1          1.5640    0.1370   -0.8140 hc        1 MOL      0.032600
     14 H2         -0.0030   -0.0010    0.0010 hc        1 MOL      0.032600
     15 H3          0.6740   -1.3950   -0.8640 hc        1 MOL      0.032600
     16 H4          0.4840   -0.1410   -3.0220 hc        1 MOL      0.038400
     17 H5         -0.1890    1.2450   -2.1610 hc        1 MOL      0.038400
     18 H6         -1.4550   -1.5460   -2.2770 hc        1 MOL      0.038100
     19 H7         -2.1290   -0.1600   -1.4160 hc        1 MOL      0.038100
     20 H8         -1.6120   -0.2810   -4.4360 hc        1 MOL      0.042900
     21 H9         -2.2850    1.1050   -3.5740 hc        1 MOL      0.042900
     22 H10        -4.2190   -0.3060   -2.8220 hc        1 MOL      0.041200
     23 H11        -3.5460   -1.6880   -3.6810 hc        1 MOL      0.041200
     24 H12        -4.3770    0.9650   -4.9950 hc        1 MOL      0.047200
     25 H13        -3.7070   -0.4150   -5.8520 hc        1 MOL      0.047200
     26 H14        -5.0050   -2.4670   -6.1790 ha        1 MOL      0.131100
     27 H15        -7.2730   -3.4270   -6.3990 ha        1 MOL      0.129900
     28 H16        -9.2310   -2.2240   -5.4620 ha        1 MOL      0.129900
     29 H17        -8.9140   -0.0530   -4.3030 ha        1 MOL      0.129900
     30 H18        -6.6500    0.9140   -4.0760 ha        1 MOL      0.131100
@<TRIPOS>BOND
     1    1    2 1   
     2    2    3 1   
     3    3    4 1   
     4    4    5 1   
     5    5    6 1   
     6    6    7 1   
     7    7   12 ar  
     8    7    8 ar  
     9    8    9 ar  
    10    9   10 ar  
    11   10   11 ar  
    12   11   12 ar  
    13    1   13 1   
    14    1   14 1   
    15    1   15 1   
    16    2   16 1   
    17    2   17 1   
    18    3   18 1   
    19    3   19 1   
    20    4   20 1   
    21    4   21 1   
    22    5   22 1   
    23    5   23 1   
    24    6   24 1   
    25    6   25 1   
    26    8   26 1   
    27    9   27 1   
    28   10   28 1   
    29   11   29 1   
    30   12   30 1   
@<TRIPOS>SUBSTRUCTURE
     1 MOL         1 TEMP              0 ****  ****    0 ROOT
