@<TRIPOS>MOLECULE
benzenethiol
   13    13     1     0     0
SMALL
No Charge or Current Charge


@<TRIPOS>ATOM
      1 C1          1.8850   -1.0360   -0.1120 ca        1 MOL     -0.137100
      2 C2          2.9210   -1.6310    0.6080 ca        1 MOL     -0.113100
      3 C3          2.8780   -1.6520    2.0020 ca        1 MOL     -0.132200
      4 C4          1.8000   -1.0790    2.6760 ca        1 MOL      0.017100
      5 C5          0.7640   -0.4840    1.9550 ca        1 MOL     -0.132200
      6 C6          0.8070   -0.4630    0.5610 ca        1 MOL     -0.113100
      7 S1          1.7450   -1.1050    4.4570 sh        1 MOL     -0.256100
      8 H1          1.9180   -1.0200   -1.1980 ha        1 MOL      0.134200
      9 H2          3.7600   -2.0770    0.0830 ha        1 MOL      0.133300
     10 H3          3.6950   -2.1200    2.5460 ha        1 MOL      0.136700
     11 H4         -0.0850   -0.0320    2.4620 ha        1 MOL      0.136700
     12 H5          0.0000    0.0000    0.0000 ha        1 MOL      0.133300
     13 H6          2.9050   -1.7500    4.6540 hs        1 MOL      0.192500
@<TRIPOS>BOND
     1    1    6 ar  
     2    1    2 ar  
     3    2    3 ar  
     4    3    4 ar  
     5    4    5 ar  
     6    5    6 ar  
     7    4    7 1   
     8    1    8 1   
     9    2    9 1   
    10    3   10 1   
    11    5   11 1   
    12    6   12 1   
    13    7   13 1   
@<TRIPOS>SUBSTRUCTURE
     1 MOL         1 TEMP              0 ****  ****    0 ROOT
