@<TRIPOS>MOLECULE
ethyl
   22    22     1     0     0
SMALL
No Charge or Current Charge


@<TRIPOS>ATOM
      1 C1         -0.8750   -1.0350   -3.9100 c3        1 MOL     -0.100100
      2 C2          0.5840   -1.0130   -3.5060 c3        1 MOL      0.135500
      3 O1          0.6720   -1.0310   -2.0780 os        1 MOL     -0.439700
      4 C3          1.9290   -1.0140   -1.5660 c         1 MOL      0.651800
      5 O2          2.9700   -0.9850   -2.2040 o         1 MOL     -0.541900
      6 C4          1.8850   -1.0360   -0.1120 ca        1 MOL     -0.170600
      7 C5          2.9210   -1.6310    0.6080 ca        1 MOL     -0.036200
      8 C6          2.8780   -1.6520    2.0020 ca        1 MOL     -0.202700
      9 C7          1.8000   -1.0790    2.6760 ca        1 MOL      0.156300
     10 C8          0.7640   -0.4840    1.9550 ca        1 MOL     -0.202700
     11 C9          0.8070   -0.4630    0.5610 ca        1 MOL     -0.036200
     12 O3          1.7570   -1.0990    4.0360 oh        1 MOL     -0.490600
     13 H1         -0.9780   -1.0220   -4.9990 hc        1 MOL      0.047200
     14 H2         -1.3700   -1.9290   -3.5190 hc        1 MOL      0.047200
     15 H3         -1.4030   -0.1710   -3.4950 hc        1 MOL      0.047200
     16 H4          1.0710   -0.1070   -3.8780 h1        1 MOL      0.050300
     17 H5          1.1060   -1.8890   -3.9030 h1        1 MOL      0.050300
     18 H6          3.7660   -2.0810    0.0940 ha        1 MOL      0.156500
     19 H7          3.6890   -2.1160    2.5580 ha        1 MOL      0.148900
     20 H8         -0.0790   -0.0360    2.4740 ha        1 MOL      0.148900
     21 H9         -0.0050    0.0040    0.0090 ha        1 MOL      0.156500
     22 H10         2.5430   -1.5440    4.3910 ho        1 MOL      0.424100
@<TRIPOS>BOND
     1    1    2 1   
     2    2    3 1   
     3    3    4 1   
     4    4    5 2   
     5    4    6 1   
     6    6   11 ar  
     7    6    7 ar  
     8    7    8 ar  
     9    8    9 ar  
    10    9   10 ar  
    11   10   11 ar  
    12    9   12 1   
    13    1   13 1   
    14    1   14 1   
    15    1   15 1   
    16    2   16 1   
    17    2   17 1   
    18    7   18 1   
    19    8   19 1   
    20   10   20 1   
    21   11   21 1   
    22   12   22 1   
@<TRIPOS>SUBSTRUCTURE
     1 MOL         1 TEMP              0 ****  ****    0 ROOT
