@<TRIPOS>MOLECULE
N,N-diethylethanamine
   22    21     1     0     0
SMALL
No Charge or Current Charge


@<TRIPOS>ATOM
      1 C1         -1.0860    0.8640    1.5850 c3        1 MOL     -0.095400
      2 C2         -0.2720   -0.2550    1.0310 c3        1 MOL      0.160900
      3 N1          0.9010   -0.5170    1.8640 n3        1 MOL     -0.720400
      4 C3          1.7510    0.6710    1.9380 c3        1 MOL      0.160900
      5 C4          2.9380    0.4000    2.7830 c3        1 MOL     -0.095400
      6 C5          1.6570   -1.6540    1.3400 c3        1 MOL      0.160900
      7 C6          0.8080   -2.8690    1.3230 c3        1 MOL     -0.095400
      8 H1         -1.9640    1.0570    0.9580 hc        1 MOL      0.037800
      9 H2         -1.4140    0.6390    2.6060 hc        1 MOL      0.037800
     10 H3         -0.4850    1.7810    1.6170 hc        1 MOL      0.037800
     11 H4          0.0820   -0.0100    0.0250 h1        1 MOL      0.030600
     12 H5         -0.8590   -1.1760    0.9840 h1        1 MOL      0.030600
     13 H6          2.0340    0.9120    0.9170 h1        1 MOL      0.030600
     14 H7          1.1350    1.4650    2.3490 h1        1 MOL      0.030600
     15 H8          3.5880    1.2790    2.8510 hc        1 MOL      0.037800
     16 H9          2.6460    0.0880    3.7920 hc        1 MOL      0.037800
     17 H10         3.5170   -0.4150    2.3310 hc        1 MOL      0.037800
     18 H11         1.9780   -1.3760    0.3400 h1        1 MOL      0.030600
     19 H12         2.5220   -1.7730    1.9860 h1        1 MOL      0.030600
     20 H13         1.3570   -3.7330    0.9330 hc        1 MOL      0.037800
     21 H14         0.4290   -3.1040    2.3240 hc        1 MOL      0.037800
     22 H15        -0.0530   -2.6910    0.6680 hc        1 MOL      0.037800
@<TRIPOS>BOND
     1    1    2 1   
     2    2    3 1   
     3    3    4 1   
     4    4    5 1   
     5    3    6 1   
     6    6    7 1   
     7    1    8 1   
     8    1    9 1   
     9    1   10 1   
    10    2   11 1   
    11    2   12 1   
    12    4   13 1   
    13    4   14 1   
    14    5   15 1   
    15    5   16 1   
    16    5   17 1   
    17    6   18 1   
    18    6   19 1   
    19    7   20 1   
    20    7   21 1   
    21    7   22 1   
@<TRIPOS>SUBSTRUCTURE
     1 MOL         1 TEMP              0 ****  ****    0 ROOT
