@<TRIPOS>MOLECULE
1-isopropyl-4-methyl-benzene
   24    24     1     0     0
SMALL
No Charge or Current Charge


@<TRIPOS>ATOM
      1 C1          1.9310   -1.0130   -1.6030 c3        1 MOL     -0.052900
      2 C2          1.8850   -1.0360   -0.1120 ca        1 MOL     -0.080400
      3 C3          2.9210   -1.6310    0.6080 ca        1 MOL     -0.129600
      4 C4          2.8780   -1.6520    2.0020 ca        1 MOL     -0.123200
      5 C5          1.8000   -1.0790    2.6760 ca        1 MOL     -0.077400
      6 C6          0.7640   -0.4840    1.9550 ca        1 MOL     -0.123200
      7 C7          0.8070   -0.4630    0.5610 ca        1 MOL     -0.129600
      8 C8          1.7530   -1.1040    4.1660 c3        1 MOL     -0.023100
      9 C9          0.5460   -1.8960    4.7040 c3        1 MOL     -0.087500
     10 C10         1.7660    0.3090    4.7800 c3        1 MOL     -0.087500
     11 H1          2.4380   -0.1080   -1.9480 hc        1 MOL      0.043200
     12 H2          2.4630   -1.8880   -1.9910 hc        1 MOL      0.043200
     13 H3          0.9200   -1.0360   -2.0250 hc        1 MOL      0.043200
     14 H4          3.7650   -2.0800    0.0920 ha        1 MOL      0.129900
     15 H5          3.6890   -2.1180    2.5550 ha        1 MOL      0.129900
     16 H6         -0.0810   -0.0360    2.4720 ha        1 MOL      0.129900
     17 H7         -0.0050    0.0020    0.0080 ha        1 MOL      0.129900
     18 H8          2.6520   -1.6140    4.5610 hc        1 MOL      0.049200
     19 H9          0.5260   -1.9050    5.7990 hc        1 MOL      0.036000
     20 H10         0.5660   -2.9370    4.3640 hc        1 MOL      0.036000
     21 H11        -0.3910   -1.4470    4.3570 hc        1 MOL      0.036000
     22 H12         1.7300    0.2520    5.8730 hc        1 MOL      0.036000
     23 H13         0.9040    0.8980    4.4470 hc        1 MOL      0.036000
     24 H14         2.6710    0.8610    4.5030 hc        1 MOL      0.036000
@<TRIPOS>BOND
     1    1    2 1   
     2    2    7 ar  
     3    2    3 ar  
     4    3    4 ar  
     5    4    5 ar  
     6    5    6 ar  
     7    6    7 ar  
     8    5    8 1   
     9    8    9 1   
    10    8   10 1   
    11    1   11 1   
    12    1   12 1   
    13    1   13 1   
    14    3   14 1   
    15    4   15 1   
    16    6   16 1   
    17    7   17 1   
    18    8   18 1   
    19    9   19 1   
    20    9   20 1   
    21    9   21 1   
    22   10   22 1   
    23   10   23 1   
    24   10   24 1   
@<TRIPOS>SUBSTRUCTURE
     1 MOL         1 TEMP              0 ****  ****    0 ROOT
