@<TRIPOS>MOLECULE
(E)-but-2-enal
   11    10     1     0     0
SMALL
No Charge or Current Charge


@<TRIPOS>ATOM
      1 C1         -1.8800    0.8860   -0.7250 c3        1 MOL     -0.083000
      2 C2         -0.9450   -0.2510   -0.4750 c2        1 MOL     -0.090500
      3 C3         -1.2230   -1.5180   -0.8030 ce        1 MOL     -0.276800
      4 C4         -0.2300   -2.5700   -0.5140 c         1 MOL      0.558100
      5 O1         -0.4320   -3.7460   -0.7930 o         1 MOL     -0.526000
      6 H1         -2.5390    1.0240    0.1390 hc        1 MOL      0.052800
      7 H2         -2.5010    0.6730   -1.6000 hc        1 MOL      0.052800
      8 H3         -1.3510    1.8280   -0.9030 hc        1 MOL      0.052800
      9 H4          0.0000    0.0000    0.0000 ha        1 MOL      0.121100
     10 H5         -2.1530   -1.8080   -1.2780 ha        1 MOL      0.149700
     11 H6          0.7050   -2.2410   -0.0300 h4        1 MOL     -0.011000
@<TRIPOS>BOND
     1    1    2 1   
     2    2    3 2   
     3    3    4 1   
     4    4    5 2   
     5    1    6 1   
     6    1    7 1   
     7    1    8 1   
     8    2    9 1   
     9    3   10 1   
    10    4   11 1   
@<TRIPOS>SUBSTRUCTURE
     1 MOL         1 TEMP              0 ****  ****    0 ROOT
