@<TRIPOS>MOLECULE
chloro(difluoro)methane
    5     4     1     0     0
SMALL
No Charge or Current Charge


@<TRIPOS>ATOM
      1 C1         -0.0240    0.0890    0.0510 c3        1 MOL      0.511400
      2 F1         -1.3430   -0.2240    0.0350 f         1 MOL     -0.213200
      3 F2          0.4840   -0.4010    1.2080 f         1 MOL     -0.213200
      4 Cl1         0.7910   -0.6400   -1.3290 cl        1 MOL     -0.192500
      5 H1          0.0920    1.1750    0.0330 h3        1 MOL      0.107400
@<TRIPOS>BOND
     1    1    2 1   
     2    1    3 1   
     3    1    4 1   
     4    1    5 1   
@<TRIPOS>SUBSTRUCTURE
     1 MOL         1 TEMP              0 ****  ****    0 ROOT
