@<TRIPOS>MOLECULE
2,2,4-trimethylpentane
   26    25     1     0     0
SMALL
No Charge or Current Charge


@<TRIPOS>ATOM
      1 C1          1.2360    1.7420   -0.0830 c3        1 MOL     -0.094900
      2 C2          0.2970    1.0740    0.9280 c3        1 MOL     -0.057700
      3 C3          1.1400    0.2820    1.9330 c3        1 MOL     -0.094900
      4 C4         -0.7190    0.1700    0.1920 c3        1 MOL     -0.065300
      5 C5         -0.1380   -0.9950   -0.6600 c3        1 MOL     -0.048500
      6 C6          1.1920   -1.4940   -0.0660 c3        1 MOL     -0.088300
      7 C7         -1.1480   -2.1620   -0.6240 c3        1 MOL     -0.088300
      8 C8          0.0840   -0.5950   -2.1250 c3        1 MOL     -0.088300
      9 H1          0.6680    2.3190   -0.8200 hc        1 MOL      0.033700
     10 H2          1.9370    2.4210    0.4130 hc        1 MOL      0.033700
     11 H3          1.8170    0.9900   -0.6280 hc        1 MOL      0.033700
     12 H4         -0.2210    1.8730    1.4690 hc        1 MOL      0.050700
     13 H5          0.5080   -0.2140    2.6780 hc        1 MOL      0.033700
     14 H6          1.7230   -0.4920    1.4210 hc        1 MOL      0.033700
     15 H7          1.8470    0.9220    2.4660 hc        1 MOL      0.033700
     16 H8         -1.3990   -0.2780    0.9300 hc        1 MOL      0.035400
     17 H9         -1.3570    0.7980   -0.4460 hc        1 MOL      0.035400
     18 H10         1.6190   -2.3150   -0.6490 hc        1 MOL      0.033600
     19 H11         1.0500   -1.8650    0.9570 hc        1 MOL      0.033600
     20 H12         1.9340   -0.6890   -0.0250 hc        1 MOL      0.033600
     21 H13        -0.7880   -3.0140   -1.2110 hc        1 MOL      0.033600
     22 H14        -2.1180   -1.8590   -1.0340 hc        1 MOL      0.033600
     23 H15        -1.3150   -2.5110    0.4010 hc        1 MOL      0.033600
     24 H16         0.4930   -1.4320   -2.7040 hc        1 MOL      0.033600
     25 H17         0.7950    0.2330   -2.2150 hc        1 MOL      0.033600
     26 H18        -0.8560   -0.2960   -2.6000 hc        1 MOL      0.033600
@<TRIPOS>BOND
     1    1    2 1   
     2    2    3 1   
     3    2    4 1   
     4    4    5 1   
     5    5    6 1   
     6    5    7 1   
     7    5    8 1   
     8    1    9 1   
     9    1   10 1   
    10    1   11 1   
    11    2   12 1   
    12    3   13 1   
    13    3   14 1   
    14    3   15 1   
    15    4   16 1   
    16    4   17 1   
    17    6   18 1   
    18    6   19 1   
    19    6   20 1   
    20    7   21 1   
    21    7   22 1   
    22    7   23 1   
    23    8   24 1   
    24    8   25 1   
    25    8   26 1   
@<TRIPOS>SUBSTRUCTURE
     1 MOL         1 TEMP              0 ****  ****    0 ROOT
