@<TRIPOS>MOLECULE
1,2,3-trimethylbenzene
   21    21     1     0     0
SMALL
No Charge or Current Charge


@<TRIPOS>ATOM
      1 C1          1.9540   -1.0290   -1.6050 c3        1 MOL     -0.054300
      2 C2          1.8850   -1.0360   -0.1120 ca        1 MOL     -0.073500
      3 C3          2.9210   -1.6310    0.6080 ca        1 MOL     -0.133200
      4 C4          2.8780   -1.6520    2.0020 ca        1 MOL     -0.127700
      5 C5          1.8000   -1.0790    2.6760 ca        1 MOL     -0.133200
      6 C6          0.7640   -0.4840    1.9550 ca        1 MOL     -0.073500
      7 C7          0.8070   -0.4630    0.5610 ca        1 MOL     -0.071400
      8 C8         -0.3050    0.1730   -0.2110 c3        1 MOL     -0.054600
      9 C9         -0.3800    0.1230    2.7000 c3        1 MOL     -0.054300
     10 H1          2.4680   -0.1260   -1.9510 hc        1 MOL      0.043000
     11 H2          2.4930   -1.9070   -1.9750 hc        1 MOL      0.043000
     12 H3          0.9510   -1.0550   -2.0430 hc        1 MOL      0.043000
     13 H4          3.7660   -2.0800    0.0930 ha        1 MOL      0.129000
     14 H5          3.6860   -2.1140    2.5630 ha        1 MOL      0.129600
     15 H6          1.7760   -1.0990    3.7620 ha        1 MOL      0.129000
     16 H7         -0.0910    1.2340   -0.3770 hc        1 MOL      0.043400
     17 H8         -0.4390   -0.3150   -1.1840 hc        1 MOL      0.043400
     18 H9         -1.2570    0.0870    0.3250 hc        1 MOL      0.043400
     19 H10        -0.1730    1.1770    2.9190 hc        1 MOL      0.043000
     20 H11        -1.3080    0.0610    2.1200 hc        1 MOL      0.043000
     21 H12        -0.5580   -0.4020    3.6470 hc        1 MOL      0.043000
@<TRIPOS>BOND
     1    1    2 1   
     2    2    7 ar  
     3    2    3 ar  
     4    3    4 ar  
     5    4    5 ar  
     6    5    6 ar  
     7    6    7 ar  
     8    7    8 1   
     9    6    9 1   
    10    1   10 1   
    11    1   11 1   
    12    1   12 1   
    13    3   13 1   
    14    4   14 1   
    15    5   15 1   
    16    8   16 1   
    17    8   17 1   
    18    8   18 1   
    19    9   19 1   
    20    9   20 1   
    21    9   21 1   
@<TRIPOS>SUBSTRUCTURE
     1 MOL         1 TEMP              0 ****  ****    0 ROOT
