@<TRIPOS>MOLECULE
cyclohexanol
   19    19     1     0     0
SMALL
No Charge or Current Charge


@<TRIPOS>ATOM
      1 C1          0.8600   -0.5760   -0.3650 c3        1 MOL     -0.078500
      2 C2          1.9980   -0.4820    0.6480 c3        1 MOL     -0.074300
      3 C3          2.5550    0.9350    0.7370 c3        1 MOL     -0.093000
      4 C4          2.9750    1.4610   -0.6340 c3        1 MOL      0.141500
      5 C5          1.8340    1.3680   -1.6460 c3        1 MOL     -0.093000
      6 C6          1.2770   -0.0490   -1.7360 c3        1 MOL     -0.074300
      7 O1          3.4010    2.8140   -0.5170 oh        1 MOL     -0.601000
      8 H1          0.0000   -0.0000    0.0000 hc        1 MOL      0.041300
      9 H2          0.5300   -1.6170   -0.4540 hc        1 MOL      0.041300
     10 H3          1.6430   -0.8030    1.6340 hc        1 MOL      0.040600
     11 H4          2.8010   -1.1710    0.3580 hc        1 MOL      0.040600
     12 H5          1.8030    1.6030    1.1760 hc        1 MOL      0.050100
     13 H6          3.4100    0.9620    1.4230 hc        1 MOL      0.050100
     14 H7          3.8350    0.8750   -0.9980 h1        1 MOL      0.030000
     15 H8          1.0340    2.0670   -1.3670 hc        1 MOL      0.050100
     16 H9          2.1830    1.6970   -2.6330 hc        1 MOL      0.050100
     17 H10         0.4170   -0.0660   -2.4150 hc        1 MOL      0.040600
     18 H11         2.0380   -0.7130   -2.1650 hc        1 MOL      0.040600
     19 H12         3.6560    3.1040   -1.4070 ho        1 MOL      0.397200
@<TRIPOS>BOND
     1    1    6 1   
     2    1    2 1   
     3    2    3 1   
     4    3    4 1   
     5    4    5 1   
     6    5    6 1   
     7    4    7 1   
     8    1    8 1   
     9    1    9 1   
    10    2   10 1   
    11    2   11 1   
    12    3   12 1   
    13    3   13 1   
    14    4   14 1   
    15    5   15 1   
    16    5   16 1   
    17    6   17 1   
    18    6   18 1   
    19    7   19 1   
@<TRIPOS>SUBSTRUCTURE
     1 MOL         1 TEMP              0 ****  ****    0 ROOT
