@<TRIPOS>MOLECULE
5-fluoro-1H-pyrimidine-2,4-dione
   12    12     1     0     0
SMALL
No Charge or Current Charge


@<TRIPOS>ATOM
      1 C1          0.6610    1.3810   -0.0450 cc        1 MOL     -0.002100
      2 C2         -0.2000    0.9150    0.8570 cd        1 MOL     -0.026700
      3 C3         -0.7440   -0.4520    0.7480 c         1 MOL      0.700900
      4 O1         -1.5370   -0.8930    1.5720 o         1 MOL     -0.576400
      5 N1         -0.2730   -1.1570   -0.3540 n         1 MOL     -0.582100
      6 C4          0.6320   -0.6860   -1.3140 c         1 MOL      0.803500
      7 O2          1.0070   -1.3720   -2.2660 o         1 MOL     -0.626600
      8 N2          1.0720    0.6150   -1.1020 n         1 MOL     -0.460600
      9 F1         -0.6190    1.6480    1.9050 f         1 MOL     -0.129000
     10 H1          1.0780    2.3790    0.0080 h4        1 MOL      0.176800
     11 H2         -0.6180   -2.1060   -0.4760 hn        1 MOL      0.359800
     12 H3          1.7310    1.0250   -1.7570 hn        1 MOL      0.362300
@<TRIPOS>BOND
     1    1    8 1   
     2    1    2 2   
     3    2    3 1   
     4    3    4 2   
     5    3    5 1   
     6    5    6 1   
     7    6    7 2   
     8    6    8 1   
     9    2    9 1   
    10    1   10 1   
    11    5   11 1   
    12    8   12 1   
@<TRIPOS>SUBSTRUCTURE
     1 MOL         1 TEMP              0 ****  ****    0 ROOT
