@<TRIPOS>MOLECULE
1-methylpiperazine
   19    19     1     0     0
SMALL
No Charge or Current Charge


@<TRIPOS>ATOM
      1 C1         -0.1860   -2.0440    4.0770 c3        1 MOL      0.152200
      2 N1         -0.4220   -2.1200    2.6360 n3        1 MOL     -0.723600
      3 C2         -0.0740   -0.8520    1.9820 c3        1 MOL      0.163500
      4 C3         -0.3120   -0.9380    0.4730 c3        1 MOL      0.161900
      5 N2          0.4340   -2.0440   -0.1320 n3        1 MOL     -0.819900
      6 C4          0.0900   -3.3040    0.5320 c3        1 MOL      0.161900
      7 C5          0.3300   -3.2320    2.0420 c3        1 MOL      0.163500
      8 H1         -0.7510   -1.2130    4.5070 h1        1 MOL      0.032200
      9 H2          0.8770   -1.8870    4.2770 h1        1 MOL      0.032200
     10 H3         -0.5010   -2.9720    4.5610 h1        1 MOL      0.032200
     11 H4         -0.6950   -0.0430    2.3850 h1        1 MOL      0.037000
     12 H5          0.9750   -0.5880    2.1760 h1        1 MOL      0.037000
     13 H6         -1.3840   -1.0510    0.2640 h1        1 MOL      0.033400
     14 H7          0.0060    0.0000    0.0050 h1        1 MOL      0.033400
     15 H8          0.2060   -2.1070   -1.1230 hn        1 MOL      0.362400
     16 H9         -0.9570   -3.5610    0.3250 h1        1 MOL      0.033400
     17 H10         0.7060   -4.1040    0.1070 h1        1 MOL      0.033400
     18 H11         0.0080   -4.1800    2.4890 h1        1 MOL      0.037000
     19 H12         1.4060   -3.1250    2.2390 h1        1 MOL      0.037000
@<TRIPOS>BOND
     1    1    2 1   
     2    2    7 1   
     3    2    3 1   
     4    3    4 1   
     5    4    5 1   
     6    5    6 1   
     7    6    7 1   
     8    1    8 1   
     9    1    9 1   
    10    1   10 1   
    11    3   11 1   
    12    3   12 1   
    13    4   13 1   
    14    4   14 1   
    15    5   15 1   
    16    6   16 1   
    17    6   17 1   
    18    7   18 1   
    19    7   19 1   
@<TRIPOS>SUBSTRUCTURE
     1 MOL         1 TEMP              0 ****  ****    0 ROOT
