@<TRIPOS>MOLECULE
1,2,3,4-tetrachlorodibenzo-p-dioxin
   22    24     1     0     0
SMALL
No Charge or Current Charge


@<TRIPOS>ATOM
      1 C1         -1.8580    0.7400    0.8000 ca        1 MOL     -0.123500
      2 C2         -1.0040   -0.2570    0.3260 ca        1 MOL     -0.123400
      3 C3         -1.4370   -1.5820    0.2690 ca        1 MOL     -0.108900
      4 C4         -2.7270   -1.9050    0.6890 ca        1 MOL      0.058600
      5 C5         -3.5800   -0.9100    1.1630 ca        1 MOL      0.058600
      6 C6         -3.1490    0.4150    1.2200 ca        1 MOL     -0.108900
      7 O1         -4.8560   -1.1830    1.5850 os        1 MOL     -0.207300
      8 C7         -5.2390   -2.4980    1.5120 ca        1 MOL      0.085700
      9 C8         -4.3860   -3.4940    1.0380 ca        1 MOL      0.085700
     10 C9         -4.8170   -4.8180    0.9820 ca        1 MOL      0.027100
     11 C10        -6.1070   -5.1430    1.4010 ca        1 MOL      0.020100
     12 C11        -6.9620   -4.1460    1.8750 ca        1 MOL      0.020100
     13 C12        -6.5290   -2.8210    1.9320 ca        1 MOL      0.027100
     14 Cl1        -7.5650   -1.5540    2.5150 cl        1 MOL     -0.023700
     15 Cl2        -8.5730   -4.5520    2.3980 cl        1 MOL     -0.031600
     16 Cl3        -6.6450   -6.7990    1.3310 cl        1 MOL     -0.031600
     17 Cl4        -3.7240   -6.0320    0.3870 cl        1 MOL     -0.023700
     18 O2         -3.1090   -3.2200    0.6160 os        1 MOL     -0.207300
     19 H1         -1.5180    1.7700    0.8430 ha        1 MOL      0.143600
     20 H2          0.0000   -0.0000    0.0000 ha        1 MOL      0.143600
     21 H3         -0.7660   -2.3530   -0.1000 ha        1 MOL      0.159800
     22 H4         -3.8080    1.1960    1.5870 ha        1 MOL      0.159800
@<TRIPOS>BOND
     1    1    6 ar  
     2    1    2 ar  
     3    2    3 ar  
     4    3    4 ar  
     5    4   18 1   
     6    4    5 ar  
     7    5    6 ar  
     8    5    7 1   
     9    7    8 1   
    10    8   13 ar  
    11    8    9 ar  
    12    9   10 ar  
    13   10   11 ar  
    14   11   12 ar  
    15   12   13 ar  
    16   13   14 1   
    17   12   15 1   
    18   11   16 1   
    19   10   17 1   
    20    9   18 1   
    21    1   19 1   
    22    2   20 1   
    23    3   21 1   
    24    6   22 1   
@<TRIPOS>SUBSTRUCTURE
     1 MOL         1 TEMP              0 ****  ****    0 ROOT
