@<TRIPOS>MOLECULE
diiodomethane
    5     4     1     0     0
SMALL
No Charge or Current Charge


@<TRIPOS>ATOM
      1 C1          0.2350   -0.0310    0.0690 c3        1 MOL      0.152800
      2 I1         -0.5660   -0.3480   -1.8690 i         1 MOL     -0.179400
      3 I2         -1.3700    0.6040    1.3000 i         1 MOL     -0.179400
      4 H1          1.0230    0.7280    0.0410 h2        1 MOL      0.102900
      5 H2          0.6780   -0.9530    0.4590 h2        1 MOL      0.102900
@<TRIPOS>BOND
     1    1    2 1   
     2    1    3 1   
     3    1    4 1   
     4    1    5 1   
@<TRIPOS>SUBSTRUCTURE
     1 MOL         1 TEMP              0 ****  ****    0 ROOT
