@<TRIPOS>MOLECULE
1,2,4-trimethylbenzene
   21    21     1     0     0
SMALL
No Charge or Current Charge


@<TRIPOS>ATOM
      1 C1          1.9310   -1.0140   -1.6030 c3        1 MOL     -0.052100
      2 C2          1.8850   -1.0360   -0.1120 ca        1 MOL     -0.079400
      3 C3          2.9210   -1.6310    0.6080 ca        1 MOL     -0.131600
      4 C4          2.8780   -1.6520    2.0020 ca        1 MOL     -0.125800
      5 C5          1.8000   -1.0790    2.6760 ca        1 MOL     -0.079000
      6 C6          0.7640   -0.4840    1.9550 ca        1 MOL     -0.071500
      7 C7          0.8070   -0.4630    0.5610 ca        1 MOL     -0.130100
      8 C8         -0.4020    0.1340    2.6550 c3        1 MOL     -0.052700
      9 C9          1.7750   -1.1150    4.1690 c3        1 MOL     -0.052200
     10 H1          2.4390   -0.1080   -1.9480 hc        1 MOL      0.043100
     11 H2          2.4640   -1.8890   -1.9910 hc        1 MOL      0.043100
     12 H3          0.9210   -1.0370   -2.0250 hc        1 MOL      0.043100
     13 H4          3.7650   -2.0800    0.0910 ha        1 MOL      0.130100
     14 H5          3.6920   -2.1160    2.5540 ha        1 MOL      0.128500
     15 H6         -0.0010   -0.0000   -0.0010 ha        1 MOL      0.128600
     16 H7         -0.2030    1.1920    2.8620 hc        1 MOL      0.043300
     17 H8         -1.3120    0.0630    2.0470 hc        1 MOL      0.043300
     18 H9         -0.6110   -0.3750    3.6030 hc        1 MOL      0.043300
     19 H10         2.2660   -0.2250    4.5790 hc        1 MOL      0.042800
     20 H11         0.7460   -1.1530    4.5470 hc        1 MOL      0.042800
     21 H12         2.2890   -2.0060    4.5520 hc        1 MOL      0.042800
@<TRIPOS>BOND
     1    1    2 1   
     2    2    7 ar  
     3    2    3 ar  
     4    3    4 ar  
     5    4    5 ar  
     6    5    6 ar  
     7    6    7 ar  
     8    6    8 1   
     9    5    9 1   
    10    1   10 1   
    11    1   11 1   
    12    1   12 1   
    13    3   13 1   
    14    4   14 1   
    15    7   15 1   
    16    8   16 1   
    17    8   17 1   
    18    8   18 1   
    19    9   19 1   
    20    9   20 1   
    21    9   21 1   
@<TRIPOS>SUBSTRUCTURE
     1 MOL         1 TEMP              0 ****  ****    0 ROOT
