@<TRIPOS>MOLECULE
bromoform
    5     4     1     0     0
SMALL
No Charge or Current Charge


@<TRIPOS>ATOM
      1 C1         -0.1050    0.0140   -0.0440 c3        1 MOL      0.054200
      2 Br1         0.1790   -1.9020    0.1250 br        1 MOL     -0.062200
      3 Br2        -0.1070    0.9100    1.6810 br        1 MOL     -0.062200
      4 Br3         1.1380    0.8320   -1.2960 br        1 MOL     -0.062200
      5 H1         -1.1050    0.1450   -0.4660 h3        1 MOL      0.132500
@<TRIPOS>BOND
     1    1    2 1   
     2    1    3 1   
     3    1    4 1   
     4    1    5 1   
@<TRIPOS>SUBSTRUCTURE
     1 MOL         1 TEMP              0 ****  ****    0 ROOT
