@<TRIPOS>MOLECULE
formaldehyde
    4     3     1     0     0
SMALL
No Charge or Current Charge


@<TRIPOS>ATOM
      1 C1          0.0060    0.0100   -0.0040 c         1 MOL      0.563300
      2 O1         -0.5770   -0.9880    0.4010 o         1 MOL     -0.514800
      3 H1          0.0770    0.9320    0.5950 h4        1 MOL     -0.024300
      4 H2          0.4930    0.0460   -0.9920 h4        1 MOL     -0.024300
@<TRIPOS>BOND
     1    1    2 2   
     2    1    3 1   
     3    1    4 1   
@<TRIPOS>SUBSTRUCTURE
     1 MOL         1 TEMP              0 ****  ****    0 ROOT
