@<TRIPOS>MOLECULE
(2S)-2-(3-fluoro-4-phenyl-phenyl)propanoic
   31    32     1     0     0
SMALL
No Charge or Current Charge


@<TRIPOS>ATOM
      1 C1          1.9230    0.4070   -2.1730 c3        1 MOL     -0.088300
      2 C2          1.9320   -1.0140   -1.6030 c3        1 MOL     -0.057800
      3 H1          2.8740   -1.4890   -1.9070 hc        1 MOL      0.088500
      4 C3          1.8850   -1.0360   -0.1120 ca        1 MOL     -0.059100
      5 C4          2.9210   -1.6310    0.6080 ca        1 MOL     -0.123300
      6 C5          2.8780   -1.6520    2.0020 ca        1 MOL     -0.093200
      7 C6          1.8000   -1.0790    2.6760 cp        1 MOL     -0.062700
      8 C7          0.7640   -0.4840    1.9550 ca        1 MOL      0.138100
      9 C8          0.8070   -0.4630    0.5610 ca        1 MOL     -0.154100
     10 F1         -0.2800    0.0720    2.5880 f         1 MOL     -0.133500
     11 C9          1.7600   -1.1030    4.1220 cp        1 MOL     -0.049900
     12 C10         0.7070   -1.7380    4.7800 ca        1 MOL     -0.108300
     13 C11         0.6690   -1.7610    6.1740 ca        1 MOL     -0.131200
     14 C12         1.6830   -1.1490    6.9100 ca        1 MOL     -0.122500
     15 C13         2.7360   -0.5130    6.2520 ca        1 MOL     -0.131200
     16 C14         2.7750   -0.4900    4.8580 ca        1 MOL     -0.108300
     17 C15         0.8020   -1.8310   -2.2110 c         1 MOL      0.633600
     18 O1         -0.2700   -1.3800   -2.5960 o         1 MOL     -0.537400
     19 O2          1.1070   -3.1530   -2.2850 oh        1 MOL     -0.610800
     20 H2          1.0080    0.9490   -1.9090 hc        1 MOL      0.052000
     21 H3          2.7800    0.9850   -1.8090 hc        1 MOL      0.052000
     22 H4          1.9740    0.3880   -3.2670 hc        1 MOL      0.052000
     23 H5          3.7650   -2.0800    0.0920 ha        1 MOL      0.141300
     24 H6          3.6930   -2.1200    2.5500 ha        1 MOL      0.145900
     25 H7         -0.0050    0.0020    0.0080 ha        1 MOL      0.149000
     26 H8         -0.0900   -2.2210    4.2210 ha        1 MOL      0.138100
     27 H9         -0.1510   -2.2570    6.6870 ha        1 MOL      0.133700
     28 H10         1.6530   -1.1670    7.9960 ha        1 MOL      0.131400
     29 H11         3.5250   -0.0360    6.8250 ha        1 MOL      0.133700
     30 H12         3.6010    0.0100    4.3590 ha        1 MOL      0.138100
     31 H13         1.9950   -3.3990   -1.9470 ho        1 MOL      0.444200
@<TRIPOS>BOND
     1    1    2 1   
     2    2    3 1   
     3    2    4 1   
     4    4    9 ar  
     5    4    5 ar  
     6    5    6 ar  
     7    6    7 ar  
     8    7    8 ar  
     9    8    9 ar  
    10    8   10 1   
    11    7   11 1   
    12   11   16 ar  
    13   11   12 ar  
    14   12   13 ar  
    15   13   14 ar  
    16   14   15 ar  
    17   15   16 ar  
    18    2   17 1   
    19   17   18 2   
    20   17   19 1   
    21    1   20 1   
    22    1   21 1   
    23    1   22 1   
    24    5   23 1   
    25    6   24 1   
    26    9   25 1   
    27   12   26 1   
    28   13   27 1   
    29   14   28 1   
    30   15   29 1   
    31   16   30 1   
    32   19   31 1   
@<TRIPOS>SUBSTRUCTURE
     1 MOL         1 TEMP              0 ****  ****    0 ROOT
