@<TRIPOS>MOLECULE
1-ethylnaphthalene
   24    25     1     0     0
SMALL
No Charge or Current Charge


@<TRIPOS>ATOM
      1 C1         -0.9110   -4.5700    2.5510 c3        1 MOL     -0.090800
      2 C2         -1.0090   -4.3870    1.0440 c3        1 MOL     -0.041500
      3 C3         -0.0480   -3.3540    0.5450 ca        1 MOL     -0.062500
      4 C4         -0.4970   -2.0340    0.4940 ca        1 MOL     -0.130900
      5 C5          0.3500   -1.0280    0.0390 ca        1 MOL     -0.124800
      6 C6          1.6480   -1.3370   -0.3660 ca        1 MOL     -0.121500
      7 C7          2.1170   -2.6600   -0.3220 ca        1 MOL     -0.034600
      8 C8          1.2560   -3.6840    0.1400 ca        1 MOL     -0.027000
      9 C9          1.7240   -5.0070    0.1850 ca        1 MOL     -0.118500
     10 C10         3.0230   -5.3170   -0.2210 ca        1 MOL     -0.129300
     11 C11         3.8690   -4.3100   -0.6760 ca        1 MOL     -0.128300
     12 C12         3.4210   -2.9900   -0.7270 ca        1 MOL     -0.118200
     13 H1         -1.6180   -5.3270    2.9070 hc        1 MOL      0.037100
     14 H2         -1.1380   -3.6280    3.0620 hc        1 MOL      0.037100
     15 H3          0.0950   -4.8830    2.8490 hc        1 MOL      0.037100
     16 H4         -2.0330   -4.1020    0.7720 hc        1 MOL      0.046900
     17 H5         -0.8180   -5.3430    0.5420 hc        1 MOL      0.046900
     18 H6         -1.5060   -1.7800    0.8070 ha        1 MOL      0.131100
     19 H7          0.0010   -0.0000   -0.0020 ha        1 MOL      0.131800
     20 H8          2.2930   -0.5340   -0.7190 ha        1 MOL      0.131800
     21 H9          1.0940   -5.8210    0.5340 ha        1 MOL      0.134400
     22 H10         3.3730   -6.3440   -0.1820 ha        1 MOL      0.130900
     23 H11         4.8800   -4.5520   -0.9920 ha        1 MOL      0.131100
     24 H12         4.1000   -2.2200   -1.0860 ha        1 MOL      0.131800
@<TRIPOS>BOND
     1    1    2 1   
     2    2    3 1   
     3    3    8 ar  
     4    3    4 ar  
     5    4    5 ar  
     6    5    6 ar  
     7    6    7 ar  
     8    7   12 ar  
     9    7    8 ar  
    10    8    9 ar  
    11    9   10 ar  
    12   10   11 ar  
    13   11   12 ar  
    14    1   13 1   
    15    1   14 1   
    16    1   15 1   
    17    2   16 1   
    18    2   17 1   
    19    4   18 1   
    20    5   19 1   
    21    6   20 1   
    22    9   21 1   
    23   10   22 1   
    24   11   23 1   
    25   12   24 1   
@<TRIPOS>SUBSTRUCTURE
     1 MOL         1 TEMP              0 ****  ****    0 ROOT
