@<TRIPOS>MOLECULE
bromomethane
    5     4     1     0     0
SMALL
No Charge or Current Charge


@<TRIPOS>ATOM
      1 C1          0.1360   -0.1000   -0.0730 c3        1 MOL     -0.039400
      2 Br1        -1.2950    0.9520    0.6960 br        1 MOL     -0.167900
      3 H1          0.8160    0.5790   -0.5900 h1        1 MOL      0.069100
      4 H2          0.6480   -0.6190    0.7390 h1        1 MOL      0.069100
      5 H3         -0.3050   -0.8120   -0.7720 h1        1 MOL      0.069100
@<TRIPOS>BOND
     1    1    2 1   
     2    1    3 1   
     3    1    4 1   
     4    1    5 1   
@<TRIPOS>SUBSTRUCTURE
     1 MOL         1 TEMP              0 ****  ****    0 ROOT
