@<TRIPOS>MOLECULE
heptan-2-one
   22    21     1     0     0
SMALL
No Charge or Current Charge


@<TRIPOS>ATOM
      1 C1         -3.2940    0.4140    5.9540 c3        1 MOL     -0.092100
      2 C2         -2.7300    1.1730    4.7640 c3        1 MOL     -0.079800
      3 C3         -1.4000    0.5790    4.2990 c3        1 MOL     -0.077600
      4 C4         -0.8380    1.3480    3.1010 c3        1 MOL     -0.075600
      5 C5          0.4910    0.7790    2.6120 c3        1 MOL     -0.180500
      6 C6          1.0570    1.5330    1.4260 c         1 MOL      0.563300
      7 O1          0.4660    2.5000    0.9430 o         1 MOL     -0.532700
      8 C7          2.3780    1.0690    0.8720 c3        1 MOL     -0.204100
      9 H1         -4.2460    0.8460    6.2800 hc        1 MOL      0.033000
     10 H2         -3.4700   -0.6330    5.6870 hc        1 MOL      0.033000
     11 H3         -2.5990    0.4360    6.7990 hc        1 MOL      0.033000
     12 H4         -2.5920    2.2250    5.0420 hc        1 MOL      0.040800
     13 H5         -3.4570    1.1470    3.9430 hc        1 MOL      0.040800
     14 H6         -1.5480   -0.4740    4.0320 hc        1 MOL      0.036700
     15 H7         -0.6790    0.6050    5.1240 hc        1 MOL      0.036700
     16 H8         -1.5730    1.3500    2.2880 hc        1 MOL      0.054500
     17 H9         -0.6810    2.3950    3.3880 hc        1 MOL      0.054500
     18 H10         0.3770   -0.2750    2.3330 hc        1 MOL      0.063600
     19 H11         1.2340    0.8140    3.4160 hc        1 MOL      0.063600
     20 H12         2.2120    0.3190    0.0960 hc        1 MOL      0.063000
     21 H13         2.9280    1.9210    0.4620 hc        1 MOL      0.063000
     22 H14         2.9760    0.6270    1.6740 hc        1 MOL      0.063000
@<TRIPOS>BOND
     1    1    2 1   
     2    2    3 1   
     3    3    4 1   
     4    4    5 1   
     5    5    6 1   
     6    6    7 2   
     7    6    8 1   
     8    1    9 1   
     9    1   10 1   
    10    1   11 1   
    11    2   12 1   
    12    2   13 1   
    13    3   14 1   
    14    3   15 1   
    15    4   16 1   
    16    4   17 1   
    17    5   18 1   
    18    5   19 1   
    19    8   20 1   
    20    8   21 1   
    21    8   22 1   
@<TRIPOS>SUBSTRUCTURE
     1 MOL         1 TEMP              0 ****  ****    0 ROOT
