@<TRIPOS>MOLECULE
oct-1-yne
   22    21     1     0     0
SMALL
No Charge or Current Charge


@<TRIPOS>ATOM
      1 C1          1.8180   -1.2740    2.9620 c3        1 MOL     -0.093800
      2 C2          1.2930   -1.4710    1.5490 c3        1 MOL     -0.079800
      3 C3          0.5510   -0.2310    1.0500 c3        1 MOL     -0.079000
      4 C4          0.0240   -0.4330   -0.3720 c3        1 MOL     -0.079100
      5 C5         -0.7190    0.8070   -0.8720 c3        1 MOL     -0.072400
      6 C6         -1.2450    0.6060   -2.2930 c3        1 MOL     -0.005000
      7 C7         -1.9580    1.8000   -2.7680 c1        1 MOL     -0.133700
      8 C8         -2.5420    2.7730   -3.1590 c1        1 MOL     -0.166600
      9 H1          2.3480   -2.1660    3.3110 hc        1 MOL      0.032300
     10 H2          0.9900   -1.0810    3.6510 hc        1 MOL      0.032300
     11 H3          2.5060   -0.4240    3.0110 hc        1 MOL      0.032300
     12 H4          2.1330   -1.6960    0.8820 hc        1 MOL      0.038300
     13 H5          0.6240   -2.3380    1.5320 hc        1 MOL      0.038300
     14 H6          1.2240    0.6340    1.0730 hc        1 MOL      0.039900
     15 H7         -0.2860   -0.0080    1.7230 hc        1 MOL      0.039900
     16 H8         -0.6490   -1.2990   -0.3950 hc        1 MOL      0.043800
     17 H9          0.8610   -0.6560   -1.0450 hc        1 MOL      0.043800
     18 H10        -1.5540    1.0330   -0.1960 hc        1 MOL      0.044300
     19 H11        -0.0470    1.6750   -0.8440 hc        1 MOL      0.044300
     20 H12        -1.9200   -0.2580   -2.3200 hc        1 MOL      0.058500
     21 H13        -0.4120    0.3840   -2.9700 hc        1 MOL      0.058500
     22 H14        -3.0610    3.6360   -3.5040 ha        1 MOL      0.162800
@<TRIPOS>BOND
     1    1    2 1   
     2    2    3 1   
     3    3    4 1   
     4    4    5 1   
     5    5    6 1   
     6    6    7 1   
     7    7    8 3   
     8    1    9 1   
     9    1   10 1   
    10    1   11 1   
    11    2   12 1   
    12    2   13 1   
    13    3   14 1   
    14    3   15 1   
    15    4   16 1   
    16    4   17 1   
    17    5   18 1   
    18    5   19 1   
    19    6   20 1   
    20    6   21 1   
    21    8   22 1   
@<TRIPOS>SUBSTRUCTURE
     1 MOL         1 TEMP              0 ****  ****    0 ROOT
