@<TRIPOS>MOLECULE
methylsulfonylmethane
   11    10     1     0     0
SMALL
No Charge or Current Charge


@<TRIPOS>ATOM
      1 C1          1.0620    0.2380    0.0930 c3        1 MOL     -0.368200
      2 S1          1.2750    1.2690    1.5230 s6        1 MOL      1.348500
      3 O1          0.9470    0.4790    2.6930 o         1 MOL     -0.654700
      4 O2          0.6110    2.5320    1.2630 o         1 MOL     -0.654700
      5 C2          3.0250    1.5690    1.5420 c3        1 MOL     -0.368200
      6 H1          1.3060    0.8250   -0.7940 h1        1 MOL      0.116200
      7 H2          1.7320   -0.6180    0.1820 h1        1 MOL      0.116200
      8 H3          0.0220   -0.0920    0.0580 h1        1 MOL      0.116200
      9 H4          3.2390    2.2010    2.3990 h1        1 MOL      0.116200
     10 H5          3.5210    0.6070    1.6270 h1        1 MOL      0.116200
     11 H6          3.2820    2.0660    0.6110 h1        1 MOL      0.116200
@<TRIPOS>BOND
     1    1    2 1   
     2    2    3 2   
     3    2    4 2   
     4    2    5 1   
     5    1    6 1   
     6    1    7 1   
     7    1    8 1   
     8    5    9 1   
     9    5   10 1   
    10    5   11 1   
@<TRIPOS>SUBSTRUCTURE
     1 MOL         1 TEMP              0 ****  ****    0 ROOT
