@<TRIPOS>MOLECULE
iodomethane
    5     4     1     0     0
SMALL
No Charge or Current Charge


@<TRIPOS>ATOM
      1 C1          0.1100   -0.0900   -0.1200 c3        1 MOL      0.036100
      2 I1         -1.1370    0.9310    1.2450 i         1 MOL     -0.243500
      3 H1          0.7690    0.6050   -0.6490 h1        1 MOL      0.069100
      4 H2          0.7400   -0.8230    0.3940 h1        1 MOL      0.069100
      5 H3         -0.4820   -0.6240   -0.8690 h1        1 MOL      0.069100
@<TRIPOS>BOND
     1    1    2 1   
     2    1    3 1   
     3    1    4 1   
     4    1    5 1   
@<TRIPOS>SUBSTRUCTURE
     1 MOL         1 TEMP              0 ****  ****    0 ROOT
