@<TRIPOS>MOLECULE
carbon
    5     4     1     0     0
SMALL
No Charge or Current Charge


@<TRIPOS>ATOM
      1 C1         -0.0000   -0.0000    0.0000 c3        1 MOL      0.324300
      2 Cl1         1.6170    0.7010    0.2650 cl        1 MOL     -0.081100
      3 Cl2         0.1220   -1.7770   -0.0360 cl        1 MOL     -0.081100
      4 Cl3        -0.6530    0.5830   -1.5520 cl        1 MOL     -0.081100
      5 Cl4        -1.0860    0.4940    1.3230 cl        1 MOL     -0.081100
@<TRIPOS>BOND
     1    1    2 1   
     2    1    3 1   
     3    1    4 1   
     4    1    5 1   
@<TRIPOS>SUBSTRUCTURE
     1 MOL         1 TEMP              0 ****  ****    0 ROOT
