@<TRIPOS>MOLECULE
2-nitrophenol
   15    15     1     0     0
SMALL
No Charge or Current Charge


@<TRIPOS>ATOM
      1 C1          1.8850   -1.0360   -0.1120 ca        1 MOL     -0.161500
      2 C2          2.9210   -1.6310    0.6080 ca        1 MOL     -0.064000
      3 C3          2.8780   -1.6520    2.0020 ca        1 MOL     -0.210700
      4 C4          1.8000   -1.0790    2.6760 ca        1 MOL      0.175600
      5 C5          0.7640   -0.4840    1.9550 ca        1 MOL     -0.184800
      6 C6          0.8070   -0.4630    0.5610 ca        1 MOL     -0.052800
      7 N1         -0.3440    0.1050    2.6250 no        1 MOL      0.322300
      8 O1         -0.2860    1.3170    2.9410 o         1 MOL     -0.191600
      9 O2         -1.3450   -0.6050    2.8790 o         1 MOL     -0.191600
     10 O3          1.7800   -1.1120    4.0380 oh        1 MOL     -0.478700
     11 H1          1.9190   -1.0200   -1.1980 ha        1 MOL      0.150000
     12 H2          3.7600   -2.0780    0.0840 ha        1 MOL      0.144500
     13 H3          3.6880   -2.1180    2.5570 ha        1 MOL      0.148000
     14 H4          0.0060   -0.0030   -0.0140 ha        1 MOL      0.159900
     15 H5          2.5730   -1.5600    4.3730 ho        1 MOL      0.435300
@<TRIPOS>BOND
     1    1    6 ar  
     2    1    2 ar  
     3    2    3 ar  
     4    3    4 ar  
     5    4    5 ar  
     6    5    6 ar  
     7    5    7 1   
     8    7    8 1   
     9    7    9 1   
    10    4   10 1   
    11    1   11 1   
    12    2   12 1   
    13    3   13 1   
    14    6   14 1   
    15   10   15 1   
@<TRIPOS>SUBSTRUCTURE
     1 MOL         1 TEMP              0 ****  ****    0 ROOT
