@<TRIPOS>MOLECULE
1,1-diethoxyethane
   22    21     1     0     0
SMALL
No Charge or Current Charge


@<TRIPOS>ATOM
      1 C1         -2.2000    1.7780   -2.9580 c3        1 MOL     -0.096600
      2 C2         -0.9530    1.1290   -2.3960 c3        1 MOL      0.133000
      3 O1         -1.1000   -0.2840   -2.4550 os        1 MOL     -0.423900
      4 C3          0.0350   -0.9860   -1.9430 c3        1 MOL      0.332700
      5 C4         -0.0330   -1.0090   -0.4210 c3        1 MOL     -0.115000
      6 O2          0.0390   -2.3520   -2.3770 os        1 MOL     -0.423900
      7 C5          0.5280   -2.4930   -3.7050 c3        1 MOL      0.133000
      8 C6          0.5000   -3.9580   -4.0850 c3        1 MOL     -0.096600
      9 H1         -2.1190    2.8680   -2.9270 hc        1 MOL      0.045500
     10 H2         -2.3650    1.4650   -3.9940 hc        1 MOL      0.045500
     11 H3         -3.0840    1.4730   -2.3890 hc        1 MOL      0.045500
     12 H4         -0.8030    1.4240   -1.3530 h1        1 MOL      0.024500
     13 H5         -0.0740    1.4160   -2.9800 h1        1 MOL      0.024500
     14 H6          0.9720   -0.5110   -2.2630 h2        1 MOL      0.029700
     15 H7          0.8300   -1.5430   -0.0070 hc        1 MOL      0.052200
     16 H8         -0.9330   -1.5180   -0.0650 hc        1 MOL      0.052200
     17 H9         -0.0140    0.0070   -0.0150 hc        1 MOL      0.052200
     18 H10        -0.1080   -1.9090   -4.3760 h1        1 MOL      0.024500
     19 H11         1.5490   -2.1040   -3.7460 h1        1 MOL      0.024500
     20 H12         0.8700   -4.1030   -5.1040 hc        1 MOL      0.045500
     21 H13         1.1150   -4.5480   -3.3980 hc        1 MOL      0.045500
     22 H14        -0.5190   -4.3540   -4.0200 hc        1 MOL      0.045500
@<TRIPOS>BOND
     1    1    2 1   
     2    2    3 1   
     3    3    4 1   
     4    4    5 1   
     5    4    6 1   
     6    6    7 1   
     7    7    8 1   
     8    1    9 1   
     9    1   10 1   
    10    1   11 1   
    11    2   12 1   
    12    2   13 1   
    13    4   14 1   
    14    5   15 1   
    15    5   16 1   
    16    5   17 1   
    17    7   18 1   
    18    7   19 1   
    19    8   20 1   
    20    8   21 1   
    21    8   22 1   
@<TRIPOS>SUBSTRUCTURE
     1 MOL         1 TEMP              0 ****  ****    0 ROOT
