@<TRIPOS>MOLECULE
4-ethylpyridine
   17    17     1     0     0
SMALL
No Charge or Current Charge


@<TRIPOS>ATOM
      1 C1          2.0260    2.3330    1.4330 c3        1 MOL     -0.089600
      2 C2          2.3470    0.8980    1.0440 c3        1 MOL     -0.046300
      3 C3          1.3880   -0.0680    1.6520 ca        1 MOL     -0.038800
      4 C4          0.2270   -0.4200    0.9730 ca        1 MOL     -0.245800
      5 C5         -0.6320   -1.3220    1.5800 ca        1 MOL      0.395100
      6 N1         -0.4090   -1.8820    2.7910 nb        1 MOL     -0.669100
      7 C6          0.7300   -1.5160    3.4210 ca        1 MOL      0.395100
      8 C7          1.6520   -0.6230    2.9000 ca        1 MOL     -0.245800
      9 H1          2.7360    3.0350    0.9820 hc        1 MOL      0.038600
     10 H2          2.0770    2.4510    2.5200 hc        1 MOL      0.038600
     11 H3          1.0200    2.6170    1.1070 hc        1 MOL      0.038600
     12 H4          3.3690    0.6500    1.3560 hc        1 MOL      0.050700
     13 H5          2.3310    0.7970   -0.0480 hc        1 MOL      0.050700
     14 H6         -0.0080   -0.0060   -0.0020 ha        1 MOL      0.143200
     15 H7         -1.5500   -1.6300    1.0920 h4        1 MOL      0.020800
     16 H8          0.8890   -1.9760    4.3900 h4        1 MOL      0.020800
     17 H9          2.5490   -0.3680    3.4540 ha        1 MOL      0.143200
@<TRIPOS>BOND
     1    1    2 1   
     2    2    3 1   
     3    3    8 ar  
     4    3    4 ar  
     5    4    5 ar  
     6    5    6 ar  
     7    6    7 ar  
     8    7    8 ar  
     9    1    9 1   
    10    1   10 1   
    11    1   11 1   
    12    2   12 1   
    13    2   13 1   
    14    4   14 1   
    15    5   15 1   
    16    7   16 1   
    17    8   17 1   
@<TRIPOS>SUBSTRUCTURE
     1 MOL         1 TEMP              0 ****  ****    0 ROOT
