@<TRIPOS>MOLECULE
isobutyl
   26    25     1     0     0
SMALL
No Charge or Current Charge


@<TRIPOS>ATOM
      1 C1          1.9650   -1.5720   -5.6310 c3        1 MOL     -0.085100
      2 C2          3.1730   -1.1110   -4.8140 c3        1 MOL     -0.115000
      3 C3          4.1590   -0.3560   -5.7030 c3        1 MOL     -0.085100
      4 C4          2.7460   -0.2390   -3.6300 c3        1 MOL      0.157700
      5 O1          1.8770   -0.9790   -2.7680 os        1 MOL     -0.446200
      6 C5          1.4250   -0.3060   -1.6680 c         1 MOL      0.635200
      7 O2          1.7000    0.8500   -1.3740 o         1 MOL     -0.536800
      8 C6          0.5290   -1.2190   -0.8490 c3        1 MOL     -0.112000
      9 C7          1.3670   -1.9780    0.1740 c3        1 MOL     -0.092000
     10 C8         -0.5770   -0.4200   -0.1640 c3        1 MOL     -0.092000
     11 H1          1.2530   -2.1140   -4.9990 hc        1 MOL      0.035100
     12 H2          2.2680   -2.2380   -6.4460 hc        1 MOL      0.035100
     13 H3          1.4350   -0.7190   -6.0690 hc        1 MOL      0.035100
     14 H4          3.6680   -2.0100   -4.4240 hc        1 MOL      0.086000
     15 H5          5.0280   -0.0230   -5.1260 hc        1 MOL      0.035100
     16 H6          3.6880    0.5310   -6.1400 hc        1 MOL      0.035100
     17 H7          4.5190   -0.9880   -6.5230 hc        1 MOL      0.035100
     18 H8          3.6190    0.0710   -3.0460 h1        1 MOL      0.054800
     19 H9          2.2180    0.6580   -3.9700 h1        1 MOL      0.054800
     20 H10         0.0510   -1.9270   -1.5360 hc        1 MOL      0.080900
     21 H11         0.7400   -2.6430    0.7760 hc        1 MOL      0.047400
     22 H12         1.8860   -1.2910    0.8510 hc        1 MOL      0.047400
     23 H13         2.1300   -2.5900   -0.3200 hc        1 MOL      0.047400
     24 H14        -1.2220   -1.0780    0.4270 hc        1 MOL      0.047400
     25 H15        -1.2020    0.0920   -0.9040 hc        1 MOL      0.047400
     26 H16        -0.1650    0.3430    0.5060 hc        1 MOL      0.047400
@<TRIPOS>BOND
     1    1    2 1   
     2    2    3 1   
     3    2    4 1   
     4    4    5 1   
     5    5    6 1   
     6    6    7 2   
     7    6    8 1   
     8    8    9 1   
     9    8   10 1   
    10    1   11 1   
    11    1   12 1   
    12    1   13 1   
    13    2   14 1   
    14    3   15 1   
    15    3   16 1   
    16    3   17 1   
    17    4   18 1   
    18    4   19 1   
    19    8   20 1   
    20    9   21 1   
    21    9   22 1   
    22    9   23 1   
    23   10   24 1   
    24   10   25 1   
    25   10   26 1   
@<TRIPOS>SUBSTRUCTURE
     1 MOL         1 TEMP              0 ****  ****    0 ROOT
