@<TRIPOS>MOLECULE
nonane
   29    28     1     0     0
SMALL
No Charge or Current Charge


@<TRIPOS>ATOM
      1 C1          0.5000   -2.0150   -1.2890 c3        1 MOL     -0.092400
      2 C2          0.8190   -1.9280    0.1950 c3        1 MOL     -0.079800
      3 C3          2.0160   -2.7840    0.6140 c3        1 MOL     -0.079500
      4 C4          2.3340   -2.6940    2.1080 c3        1 MOL     -0.078300
      5 C5          3.5370   -3.5670    2.4730 c3        1 MOL     -0.078600
      6 C6          3.8560   -3.4790    3.9660 c3        1 MOL     -0.078300
      7 C7          5.0580   -4.3510    4.3310 c3        1 MOL     -0.079500
      8 C8          5.3770   -4.2630    5.8230 c3        1 MOL     -0.079800
      9 C9          6.5710   -5.1280    6.1910 c3        1 MOL     -0.092400
     10 H1         -0.3610   -1.3890   -1.5440 hc        1 MOL      0.032500
     11 H2          1.3560   -1.6690   -1.8780 hc        1 MOL      0.032500
     12 H3          0.2840   -3.0430   -1.5940 hc        1 MOL      0.032500
     13 H4          0.9930   -0.8820    0.4700 hc        1 MOL      0.038300
     14 H5         -0.0600   -2.2620    0.7600 hc        1 MOL      0.038300
     15 H6          1.7980   -3.8280    0.3560 hc        1 MOL      0.038900
     16 H7          2.8980   -2.4930    0.0300 hc        1 MOL      0.038900
     17 H8          1.4600   -3.0120    2.6900 hc        1 MOL      0.039200
     18 H9          2.5480   -1.6560    2.3850 hc        1 MOL      0.039200
     19 H10         3.3300   -4.6100    2.2030 hc        1 MOL      0.039000
     20 H11         4.4100   -3.2490    1.8910 hc        1 MOL      0.039000
     21 H12         4.0630   -2.4360    4.2370 hc        1 MOL      0.039200
     22 H13         2.9820   -3.7960    4.5480 hc        1 MOL      0.039200
     23 H14         5.9330   -4.0340    3.7490 hc        1 MOL      0.038900
     24 H15         4.8510   -5.3940    4.0600 hc        1 MOL      0.038900
     25 H16         5.5890   -3.2230    6.0970 hc        1 MOL      0.038300
     26 H17         4.5070   -4.5820    6.4090 hc        1 MOL      0.038300
     27 H18         6.7810   -5.0490    7.2620 hc        1 MOL      0.032500
     28 H19         7.4670   -4.8130    5.6450 hc        1 MOL      0.032500
     29 H20         6.3800   -6.1810    5.9580 hc        1 MOL      0.032500
@<TRIPOS>BOND
     1    1    2 1   
     2    2    3 1   
     3    3    4 1   
     4    4    5 1   
     5    5    6 1   
     6    6    7 1   
     7    7    8 1   
     8    8    9 1   
     9    1   10 1   
    10    1   11 1   
    11    1   12 1   
    12    2   13 1   
    13    2   14 1   
    14    3   15 1   
    15    3   16 1   
    16    4   17 1   
    17    4   18 1   
    18    5   19 1   
    19    5   20 1   
    20    6   21 1   
    21    6   22 1   
    22    7   23 1   
    23    7   24 1   
    24    8   25 1   
    25    8   26 1   
    26    9   27 1   
    27    9   28 1   
    28    9   29 1   
@<TRIPOS>SUBSTRUCTURE
     1 MOL         1 TEMP              0 ****  ****    0 ROOT
