@<TRIPOS>MOLECULE
1,3,5-trichlorobenzene
   12    12     1     0     0
SMALL
No Charge or Current Charge


@<TRIPOS>ATOM
      1 C1          1.8850   -1.0360   -0.1120 ca        1 MOL     -0.122300
      2 C2          2.9210   -1.6310    0.6080 ca        1 MOL      0.031500
      3 C3          2.8780   -1.6520    2.0020 ca        1 MOL     -0.122200
      4 C4          1.8000   -1.0790    2.6760 ca        1 MOL      0.031500
      5 C5          0.7640   -0.4840    1.9550 ca        1 MOL     -0.122200
      6 C6          0.8070   -0.4630    0.5610 ca        1 MOL      0.031500
      7 Cl1        -0.4710    0.2710   -0.3280 cl        1 MOL     -0.074100
      8 Cl2         1.7470   -1.1050    4.3960 cl        1 MOL     -0.074100
      9 Cl3         4.2530   -2.3380   -0.2220 cl        1 MOL     -0.074100
     10 H1          1.9180   -1.0200   -1.2000 ha        1 MOL      0.164900
     11 H2          3.6860   -2.1160    2.5640 ha        1 MOL      0.164900
     12 H3         -0.0780   -0.0370    2.4800 ha        1 MOL      0.164900
@<TRIPOS>BOND
     1    1    6 ar  
     2    1    2 ar  
     3    2    3 ar  
     4    3    4 ar  
     5    4    5 ar  
     6    5    6 ar  
     7    6    7 1   
     8    4    8 1   
     9    2    9 1   
    10    1   10 1   
    11    3   11 1   
    12    5   12 1   
@<TRIPOS>SUBSTRUCTURE
     1 MOL         1 TEMP              0 ****  ****    0 ROOT
