@<TRIPOS>MOLECULE
hept-1-yne
   19    18     1     0     0
SMALL
No Charge or Current Charge


@<TRIPOS>ATOM
      1 C1         -0.5090   -0.7850   -2.9690 c3        1 MOL     -0.092100
      2 C2         -0.4720    0.1750   -1.7910 c3        1 MOL     -0.079400
      3 C3          0.0090   -0.5190   -0.5170 c3        1 MOL     -0.079600
      4 C4          0.0440    0.4510    0.6660 c3        1 MOL     -0.076300
      5 C5          0.5250   -0.2430    1.9400 c3        1 MOL     -0.003200
      6 C6          0.5570    0.6920    3.0730 c1        1 MOL     -0.137400
      7 C7          0.5860    1.4530    4.0010 c1        1 MOL     -0.162200
      8 H1         -0.8560   -0.2680   -3.8690 hc        1 MOL      0.033500
      9 H2         -1.1890   -1.6200   -2.7730 hc        1 MOL      0.033500
     10 H3          0.4860   -1.1930   -3.1730 hc        1 MOL      0.033500
     11 H4          0.1910    1.0140   -2.0320 hc        1 MOL      0.039400
     12 H5         -1.4750    0.5890   -1.6340 hc        1 MOL      0.039400
     13 H6          1.0110   -0.9340   -0.6810 hc        1 MOL      0.039300
     14 H7         -0.6560   -1.3590   -0.2830 hc        1 MOL      0.039300
     15 H8         -0.9570    0.8710    0.8270 hc        1 MOL      0.046500
     16 H9          0.7060    1.2940    0.4300 hc        1 MOL      0.046500
     17 H10         1.5270   -0.6590    1.7810 hc        1 MOL      0.058100
     18 H11        -0.1370   -1.0840    2.1780 hc        1 MOL      0.058100
     19 H12         0.6110    2.1270    4.8250 ha        1 MOL      0.163200
@<TRIPOS>BOND
     1    1    2 1   
     2    2    3 1   
     3    3    4 1   
     4    4    5 1   
     5    5    6 1   
     6    6    7 3   
     7    1    8 1   
     8    1    9 1   
     9    1   10 1   
    10    2   11 1   
    11    2   12 1   
    12    3   13 1   
    13    3   14 1   
    14    4   15 1   
    15    4   16 1   
    16    5   17 1   
    17    5   18 1   
    18    7   19 1   
@<TRIPOS>SUBSTRUCTURE
     1 MOL         1 TEMP              0 ****  ****    0 ROOT
