@<TRIPOS>MOLECULE
hexane
   20    19     1     0     0
SMALL
No Charge or Current Charge


@<TRIPOS>ATOM
      1 C1         -0.7500   -0.7230   -0.3380 c3        1 MOL     -0.092400
      2 C2         -0.8330   -0.7250   -1.8560 c3        1 MOL     -0.079500
      3 C3         -1.8740   -1.7250   -2.3580 c3        1 MOL     -0.078700
      4 C4         -1.9540   -1.7250   -3.8850 c3        1 MOL     -0.078700
      5 C5         -2.9950   -2.7250   -4.3870 c3        1 MOL     -0.079500
      6 C6         -3.0780   -2.7280   -5.9050 c3        1 MOL     -0.092400
      7 H1         -0.0020   -0.0040    0.0130 hc        1 MOL      0.032400
      8 H2         -0.4660   -1.7140    0.0280 hc        1 MOL      0.032400
      9 H3         -1.7150   -0.4600    0.1070 hc        1 MOL      0.032400
     10 H4          0.1520   -0.9730   -2.2690 hc        1 MOL      0.038100
     11 H5         -1.0860    0.2830   -2.2040 hc        1 MOL      0.038100
     12 H6         -2.8560   -1.4750   -1.9380 hc        1 MOL      0.038700
     13 H7         -1.6180   -2.7310   -2.0040 hc        1 MOL      0.038700
     14 H8         -0.9720   -1.9750   -4.3050 hc        1 MOL      0.038700
     15 H9         -2.2100   -0.7190   -4.2400 hc        1 MOL      0.038700
     16 H10        -2.7420   -3.7330   -4.0400 hc        1 MOL      0.038100
     17 H11        -3.9800   -2.4770   -3.9740 hc        1 MOL      0.038100
     18 H12        -3.8260   -3.4460   -6.2560 hc        1 MOL      0.032400
     19 H13        -3.3490   -1.7370   -6.2850 hc        1 MOL      0.032400
     20 H14        -2.1120   -3.0050   -6.3370 hc        1 MOL      0.032400
@<TRIPOS>BOND
     1    1    2 1   
     2    2    3 1   
     3    3    4 1   
     4    4    5 1   
     5    5    6 1   
     6    1    7 1   
     7    1    8 1   
     8    1    9 1   
     9    2   10 1   
    10    2   11 1   
    11    3   12 1   
    12    3   13 1   
    13    4   14 1   
    14    4   15 1   
    15    5   16 1   
    16    5   17 1   
    17    6   18 1   
    18    6   19 1   
    19    6   20 1   
@<TRIPOS>SUBSTRUCTURE
     1 MOL         1 TEMP              0 ****  ****    0 ROOT
