@<TRIPOS>MOLECULE
propyl
   25    25     1     0     0
SMALL
No Charge or Current Charge


@<TRIPOS>ATOM
      1 C1          0.1270   -0.8830    0.7360 c3        1 MOL     -0.091900
      2 C2          1.3670   -0.6500    1.5800 c3        1 MOL     -0.106500
      3 C3          1.2750   -1.3490    2.9280 c3        1 MOL      0.133600
      4 O1          2.4630   -1.0900    3.6620 os        1 MOL     -0.433000
      5 C4          2.5350   -1.6510    4.9010 c         1 MOL      0.650100
      6 O2          1.6790   -2.3470    5.4240 o         1 MOL     -0.534700
      7 C5          3.8190   -1.3050    5.5620 ca        1 MOL     -0.156500
      8 C6          4.0950   -1.7820    6.8440 ca        1 MOL     -0.046100
      9 C7          5.3010   -1.4570    7.4650 ca        1 MOL     -0.194400
     10 C8          6.2310   -0.6550    6.8040 ca        1 MOL      0.148300
     11 C9          5.9560   -0.1790    5.5220 ca        1 MOL     -0.194400
     12 C10         4.7500   -0.5040    4.9010 ca        1 MOL     -0.046100
     13 O3          7.4090   -0.3380    7.4090 oh        1 MOL     -0.492300
     14 H1          0.2090   -0.3740   -0.2300 hc        1 MOL      0.036900
     15 H2         -0.0070   -1.9530    0.5460 hc        1 MOL      0.036900
     16 H3         -0.7690   -0.5130    1.2450 hc        1 MOL      0.036900
     17 H4          1.5170    0.4260    1.7330 hc        1 MOL      0.052500
     18 H5          2.2560   -1.0030    1.0420 hc        1 MOL      0.052500
     19 H6          0.4210   -0.9770    3.5030 h1        1 MOL      0.064000
     20 H7          1.1730   -2.4320    2.8000 h1        1 MOL      0.064000
     21 H8          3.3770   -2.4070    7.3690 ha        1 MOL      0.149300
     22 H9          5.5100   -1.8320    8.4620 ha        1 MOL      0.149100
     23 H10         6.6770    0.4470    5.0020 ha        1 MOL      0.149100
     24 H11         4.5450   -0.1270    3.9020 ha        1 MOL      0.149300
     25 H12         7.4530   -0.7410    8.2900 ho        1 MOL      0.423400
@<TRIPOS>BOND
     1    1    2 1   
     2    2    3 1   
     3    3    4 1   
     4    4    5 1   
     5    5    6 2   
     6    5    7 1   
     7    7   12 ar  
     8    7    8 ar  
     9    8    9 ar  
    10    9   10 ar  
    11   10   11 ar  
    12   11   12 ar  
    13   10   13 1   
    14    1   14 1   
    15    1   15 1   
    16    1   16 1   
    17    2   17 1   
    18    2   18 1   
    19    3   19 1   
    20    3   20 1   
    21    8   21 1   
    22    9   22 1   
    23   11   23 1   
    24   12   24 1   
    25   13   25 1   
@<TRIPOS>SUBSTRUCTURE
     1 MOL         1 TEMP              0 ****  ****    0 ROOT
