@<TRIPOS>MOLECULE
heptan-1-ol
   24    23     1     0     0
SMALL
No Charge or Current Charge


@<TRIPOS>ATOM
      1 C1          2.0150   -2.4050   -0.2390 c3        1 MOL     -0.092400
      2 C2          1.5980   -2.9290   -1.6050 c3        1 MOL     -0.079800
      3 C3          0.0760   -3.0070   -1.7320 c3        1 MOL     -0.079200
      4 C4         -0.3960   -3.5290   -3.0910 c3        1 MOL     -0.077500
      5 C5         -1.9190   -3.6070   -3.2180 c3        1 MOL     -0.077800
      6 C6         -2.3340   -4.1330   -4.5910 c3        1 MOL     -0.084600
      7 C7         -3.8480   -4.2150   -4.7270 c3        1 MOL      0.131800
      8 O1         -4.1660   -4.7090   -6.0210 oh        1 MOL     -0.602100
      9 H1          3.1050   -2.3520   -0.1550 hc        1 MOL      0.032800
     10 H2          1.6450   -3.0680    0.5500 hc        1 MOL      0.032800
     11 H3          1.6070   -1.4050   -0.0610 hc        1 MOL      0.032800
     12 H4          2.0370   -3.9220   -1.7580 hc        1 MOL      0.039000
     13 H5          2.0110   -2.2680   -2.3740 hc        1 MOL      0.039000
     14 H6         -0.3620   -2.0190   -1.5450 hc        1 MOL      0.038400
     15 H7         -0.3140   -3.6760   -0.9550 hc        1 MOL      0.038400
     16 H8          0.0100   -2.8970   -3.8900 hc        1 MOL      0.041000
     17 H9          0.0260   -4.5310   -3.2370 hc        1 MOL      0.041000
     18 H10        -2.3600   -2.6150   -3.0670 hc        1 MOL      0.038800
     19 H11        -2.3200   -4.2640   -2.4370 hc        1 MOL      0.038800
     20 H12        -1.9010   -5.1270   -4.7640 hc        1 MOL      0.054900
     21 H13        -1.9320   -3.4880   -5.3820 hc        1 MOL      0.054900
     22 H14        -4.3050   -3.2270   -4.6100 h1        1 MOL      0.020400
     23 H15        -4.2710   -4.8940   -3.9810 h1        1 MOL      0.020400
     24 H16        -5.1350   -4.7490   -6.0750 ho        1 MOL      0.398000
@<TRIPOS>BOND
     1    1    2 1   
     2    2    3 1   
     3    3    4 1   
     4    4    5 1   
     5    5    6 1   
     6    6    7 1   
     7    7    8 1   
     8    1    9 1   
     9    1   10 1   
    10    1   11 1   
    11    2   12 1   
    12    2   13 1   
    13    3   14 1   
    14    3   15 1   
    15    4   16 1   
    16    4   17 1   
    17    5   18 1   
    18    5   19 1   
    19    6   20 1   
    20    6   21 1   
    21    7   22 1   
    22    7   23 1   
    23    8   24 1   
@<TRIPOS>SUBSTRUCTURE
     1 MOL         1 TEMP              0 ****  ****    0 ROOT
