@<TRIPOS>MOLECULE
cyclopentene
   13    13     1     0     0
SMALL
No Charge or Current Charge


@<TRIPOS>ATOM
      1 C1          1.0230    0.7440   -0.0610 c3        1 MOL     -0.082800
      2 C2          1.0100   -0.7590    0.2210 c3        1 MOL     -0.057800
      3 C3         -0.4080   -1.1340   -0.0440 c2        1 MOL     -0.177000
      4 C4         -1.1950   -0.0590   -0.1480 c2        1 MOL     -0.177000
      5 C5         -0.4300    1.2080    0.0310 c3        1 MOL     -0.057800
      6 H1          1.4070    0.9270   -1.0730 hc        1 MOL      0.042800
      7 H2          1.6740    1.2870    0.6330 hc        1 MOL      0.042800
      8 H3          1.7020   -1.2900   -0.4390 hc        1 MOL      0.049000
      9 H4          1.2730   -0.9760    1.2610 hc        1 MOL      0.049000
     10 H5         -0.7590   -2.1540   -0.1100 ha        1 MOL      0.135300
     11 H6         -2.2630   -0.1000   -0.3110 ha        1 MOL      0.135300
     12 H7         -0.6620    1.9370   -0.7510 hc        1 MOL      0.049000
     13 H8         -0.6510    1.6510    1.0080 hc        1 MOL      0.049000
@<TRIPOS>BOND
     1    1    5 1   
     2    1    2 1   
     3    2    3 1   
     4    3    4 2   
     5    4    5 1   
     6    1    6 1   
     7    1    7 1   
     8    2    8 1   
     9    2    9 1   
    10    3   10 1   
    11    4   11 1   
    12    5   12 1   
    13    5   13 1   
@<TRIPOS>SUBSTRUCTURE
     1 MOL         1 TEMP              0 ****  ****    0 ROOT
