@<TRIPOS>MOLECULE
2,6-dichloro-4-hydroxy-3,5-dimethoxy-benzaldehyde
   23    23     1     0     0
SMALL
No Charge or Current Charge


@<TRIPOS>ATOM
      1 C1          2.5870    0.0900   -2.0810 c3        1 MOL      0.110400
      2 O1          1.9450   -1.0260   -1.4760 os        1 MOL     -0.325300
      3 C2          1.8850   -1.0360   -0.1120 ca        1 MOL      0.039600
      4 C3          2.9210   -1.6310    0.6080 ca        1 MOL      0.137100
      5 C4          2.8780   -1.6520    2.0020 ca        1 MOL      0.039600
      6 C5          1.8000   -1.0790    2.6760 ca        1 MOL      0.066000
      7 C6          0.7640   -0.4840    1.9550 ca        1 MOL     -0.197300
      8 C7          0.8070   -0.4630    0.5610 ca        1 MOL      0.066000
      9 Cl1        -0.4720    0.2680   -0.3530 cl        1 MOL     -0.047200
     10 C8         -0.3670    0.1170    2.6610 c         1 MOL      0.585600
     11 O2         -0.6620    1.3060    2.5550 o         1 MOL     -0.492000
     12 Cl2         1.7660   -1.1130    4.4080 cl        1 MOL     -0.047200
     13 O3          3.9010   -2.2390    2.6900 os        1 MOL     -0.325300
     14 C9          4.9990   -1.4050    3.0500 c3        1 MOL      0.110400
     15 O4          3.9760   -2.1910   -0.0500 oh        1 MOL     -0.471100
     16 H1          2.5680   -0.0230   -3.1670 h1        1 MOL      0.048400
     17 H2          3.6190    0.1530   -1.7280 h1        1 MOL      0.048400
     18 H3          2.0530    1.0010   -1.8020 h1        1 MOL      0.048400
     19 H4         -0.9660   -0.5510    3.3120 h4        1 MOL      0.020400
     20 H5          5.7350   -2.0000    3.5900 h1        1 MOL      0.048400
     21 H6          4.6360   -0.5890    3.6740 h1        1 MOL      0.048400
     22 H7          5.4430   -1.0040    2.1400 h1        1 MOL      0.048400
     23 H8          3.8600   -2.0950   -1.0080 ho        1 MOL      0.439900
@<TRIPOS>BOND
     1    1    2 1   
     2    2    3 1   
     3    3    8 ar  
     4    3    4 ar  
     5    4    5 ar  
     6    5    6 ar  
     7    6    7 ar  
     8    7    8 ar  
     9    8    9 1   
    10    7   10 1   
    11   10   11 2   
    12    6   12 1   
    13    5   13 1   
    14   13   14 1   
    15    4   15 1   
    16    1   16 1   
    17    1   17 1   
    18    1   18 1   
    19   10   19 1   
    20   14   20 1   
    21   14   21 1   
    22   14   22 1   
    23   15   23 1   
@<TRIPOS>SUBSTRUCTURE
     1 MOL         1 TEMP              0 ****  ****    0 ROOT
