@<TRIPOS>MOLECULE
propyl
   23    22     1     0     0
SMALL
No Charge or Current Charge


@<TRIPOS>ATOM
      1 C1         -0.3790   -0.7020    0.7540 c3        1 MOL     -0.093900
      2 C2          0.4040   -0.5830    2.0510 c3        1 MOL     -0.079200
      3 C3          1.8850   -0.8880    1.8410 c3        1 MOL     -0.133000
      4 C4          2.6750   -0.7720    3.1240 c         1 MOL      0.634900
      5 O1          2.2090   -0.4720    4.2150 o         1 MOL     -0.533600
      6 O2          3.9850   -1.0580    2.8640 os        1 MOL     -0.448100
      7 C5          4.8660   -0.9910    3.9910 c3        1 MOL      0.133400
      8 C6          6.2690   -1.3350    3.5260 c3        1 MOL     -0.109000
      9 C7          7.2620   -1.2840    4.6730 c3        1 MOL     -0.092300
     10 H1         -1.4370   -0.4790    0.9280 hc        1 MOL      0.038000
     11 H2         -0.0030   -0.0010    0.0020 hc        1 MOL      0.038000
     12 H3         -0.3080   -1.7150    0.3450 hc        1 MOL      0.038000
     13 H4         -0.0180   -1.2710    2.7930 hc        1 MOL      0.052900
     14 H5          0.2840    0.4300    2.4550 hc        1 MOL      0.052900
     15 H6          2.3080   -0.1850    1.1150 hc        1 MOL      0.077500
     16 H7          2.0010   -1.9090    1.4590 hc        1 MOL      0.077500
     17 H8          4.5110   -1.7010    4.7400 h1        1 MOL      0.067900
     18 H9          4.8180    0.0210    4.3970 h1        1 MOL      0.067900
     19 H10         6.2760   -2.3330    3.0720 hc        1 MOL      0.049600
     20 H11         6.5780   -0.6420    2.7340 hc        1 MOL      0.049600
     21 H12         8.2710   -1.5330    4.3290 hc        1 MOL      0.037000
     22 H13         7.2900   -0.2790    5.1070 hc        1 MOL      0.037000
     23 H14         6.9850   -1.9880    5.4630 hc        1 MOL      0.037000
@<TRIPOS>BOND
     1    1    2 1   
     2    2    3 1   
     3    3    4 1   
     4    4    5 2   
     5    4    6 1   
     6    6    7 1   
     7    7    8 1   
     8    8    9 1   
     9    1   10 1   
    10    1   11 1   
    11    1   12 1   
    12    2   13 1   
    13    2   14 1   
    14    3   15 1   
    15    3   16 1   
    16    7   17 1   
    17    7   18 1   
    18    8   19 1   
    19    8   20 1   
    20    9   21 1   
    21    9   22 1   
    22    9   23 1   
@<TRIPOS>SUBSTRUCTURE
     1 MOL         1 TEMP              0 ****  ****    0 ROOT
