@<TRIPOS>MOLECULE
2-[(1S)-2-chloro-1-diethoxyphosphinothioylsulfanyl-ethyl]isoindoline-1,3-dione
   40    41     1     0     0
SMALL
No Charge or Current Charge


@<TRIPOS>ATOM
      1 C1          2.0290    4.1210    3.8400 c3        1 MOL     -0.095800
      2 C2          0.7290    3.7570    3.1550 c3        1 MOL      0.133600
      3 O1          1.0170    3.0140    1.9820 os        1 MOL     -0.497200
      4 P1         -0.1950    2.4770    1.0250 p5        1 MOL      0.915100
      5 S1         -1.2910    3.9440    0.3190 s         1 MOL     -0.481300
      6 O2         -0.9930    1.5920    2.1440 os        1 MOL     -0.497200
      7 C3         -2.1750    0.8900    1.7940 c3        1 MOL      0.133600
      8 C4         -2.6980    0.1620    3.0140 c3        1 MOL     -0.095800
      9 S2          0.6690    1.1030   -0.3520 ss        1 MOL     -0.553100
     10 C5          1.3980   -0.2300    0.6530 c3        1 MOL      0.407900
     11 H1          0.7210   -0.4590    1.4820 h2        1 MOL      0.119200
     12 C6          1.6530   -1.4870   -0.1770 c3        1 MOL      0.003200
     13 Cl1         2.3660   -2.8000    0.7940 cl        1 MOL     -0.177100
     14 N1          2.6280    0.2370    1.2390 n         1 MOL     -0.504900
     15 C7          3.7180    0.6730    0.5060 c         1 MOL      0.735000
     16 O3          3.8690    0.7570   -0.6980 o         1 MOL     -0.544500
     17 C8          4.7380    1.0450    1.4860 ca        1 MOL     -0.133700
     18 C9          6.0120    1.5390    1.2960 ca        1 MOL     -0.058900
     19 C10         6.7680    1.8080    2.4400 ca        1 MOL     -0.114600
     20 C11         6.2410    1.5810    3.7280 ca        1 MOL     -0.114600
     21 C12         4.9470    1.0800    3.8970 ca        1 MOL     -0.058900
     22 C13         4.2190    0.8220    2.7530 ca        1 MOL     -0.133700
     23 C14         2.8600    0.3040    2.6020 c         1 MOL      0.735000
     24 O4          2.1330    0.0100    3.5320 o         1 MOL     -0.544500
     25 H2          1.8430    4.6960    4.7510 hc        1 MOL      0.055700
     26 H3          2.5930    3.2190    4.1010 hc        1 MOL      0.055700
     27 H4          2.6640    4.7120    3.1730 hc        1 MOL      0.055700
     28 H5          0.1780    4.6600    2.8740 h1        1 MOL      0.064400
     29 H6          0.1050    3.1470    3.8150 h1        1 MOL      0.064400
     30 H7         -2.9170    1.6080    1.4290 h1        1 MOL      0.064400
     31 H8         -1.9410    0.1800    0.9940 h1        1 MOL      0.064400
     32 H9         -3.6110   -0.3910    2.7780 hc        1 MOL      0.055700
     33 H10        -1.9480   -0.5400    3.3940 hc        1 MOL      0.055700
     34 H11        -2.9110    0.8680    3.8230 hc        1 MOL      0.055700
     35 H12         0.7110   -1.8740   -0.5800 h1        1 MOL      0.107400
     36 H13         2.3140   -1.2920   -1.0300 h1        1 MOL      0.107400
     37 H14         6.4170    1.7140    0.3060 ha        1 MOL      0.162200
     38 H15         7.7780    2.1990    2.3380 ha        1 MOL      0.146200
     39 H16         6.8520    1.7990    4.6000 ha        1 MOL      0.146200
     40 H17         4.5420    0.9060    4.8860 ha        1 MOL      0.162200
@<TRIPOS>BOND
     1    1    2 1   
     2    2    3 1   
     3    3    4 1   
     4    4    5 2   
     5    4    6 1   
     6    6    7 1   
     7    7    8 1   
     8    4    9 1   
     9    9   10 1   
    10   10   11 1   
    11   10   12 1   
    12   12   13 1   
    13   10   14 1   
    14   14   23 1   
    15   14   15 1   
    16   15   16 2   
    17   15   17 1   
    18   17   22 ar  
    19   17   18 ar  
    20   18   19 ar  
    21   19   20 ar  
    22   20   21 ar  
    23   21   22 ar  
    24   22   23 1   
    25   23   24 2   
    26    1   25 1   
    27    1   26 1   
    28    1   27 1   
    29    2   28 1   
    30    2   29 1   
    31    7   30 1   
    32    7   31 1   
    33    8   32 1   
    34    8   33 1   
    35    8   34 1   
    36   12   35 1   
    37   12   36 1   
    38   18   37 1   
    39   19   38 1   
    40   20   39 1   
    41   21   40 1   
@<TRIPOS>SUBSTRUCTURE
     1 MOL         1 TEMP              0 ****  ****    0 ROOT
