@<TRIPOS>MOLECULE
nonan-2-one
   28    27     1     0     0
SMALL
No Charge or Current Charge


@<TRIPOS>ATOM
      1 C1          1.0910    3.4360    2.8350 c3        1 MOL     -0.092000
      2 C2          0.5300    2.0330    2.6650 c3        1 MOL     -0.080000
      3 C3          0.7520    1.5090    1.2470 c3        1 MOL     -0.078400
      4 C4          0.1860    0.0980    1.0810 c3        1 MOL     -0.078200
      5 C5          0.4090   -0.4270   -0.3390 c3        1 MOL     -0.077000
      6 C6         -0.1580   -1.8400   -0.5040 c3        1 MOL     -0.075300
      7 C7          0.0480   -2.3930   -1.9110 c3        1 MOL     -0.181100
      8 C8         -0.5090   -3.7910   -2.0850 c         1 MOL      0.563700
      9 O1         -1.0630   -4.3780   -1.1560 o         1 MOL     -0.531900
     10 C9         -0.3460   -4.4430   -3.4330 c3        1 MOL     -0.204900
     11 H1          0.9270    3.8030    3.8530 hc        1 MOL      0.032800
     12 H2          0.6180    4.1350    2.1370 hc        1 MOL      0.032800
     13 H3          2.1680    3.4390    2.6420 hc        1 MOL      0.032800
     14 H4          1.0090    1.3640    3.3890 hc        1 MOL      0.038700
     15 H5         -0.5420    2.0450    2.8940 hc        1 MOL      0.038700
     16 H6          0.2740    2.1840    0.5270 hc        1 MOL      0.037900
     17 H7          1.8250    1.5030    1.0210 hc        1 MOL      0.037900
     18 H8          0.6650   -0.5770    1.8010 hc        1 MOL      0.041600
     19 H9         -0.8870    0.1030    1.3060 hc        1 MOL      0.041600
     20 H10        -0.0680    0.2520   -1.0550 hc        1 MOL      0.037300
     21 H11         1.4820   -0.4340   -0.5640 hc        1 MOL      0.037300
     22 H12         0.3390   -2.5110    0.2080 hc        1 MOL      0.054800
     23 H13        -1.2240   -1.8410   -0.2470 hc        1 MOL      0.054800
     24 H14        -0.4200   -1.7360   -2.6530 hc        1 MOL      0.063900
     25 H15         1.1170   -2.4270   -2.1500 hc        1 MOL      0.063900
     26 H16         0.5960   -4.9980   -3.4590 hc        1 MOL      0.062800
     27 H17        -0.3300   -3.6810   -4.2160 hc        1 MOL      0.062800
     28 H18        -1.1650   -5.1450   -3.6060 hc        1 MOL      0.062800
@<TRIPOS>BOND
     1    1    2 1   
     2    2    3 1   
     3    3    4 1   
     4    4    5 1   
     5    5    6 1   
     6    6    7 1   
     7    7    8 1   
     8    8    9 2   
     9    8   10 1   
    10    1   11 1   
    11    1   12 1   
    12    1   13 1   
    13    2   14 1   
    14    2   15 1   
    15    3   16 1   
    16    3   17 1   
    17    4   18 1   
    18    4   19 1   
    19    5   20 1   
    20    5   21 1   
    21    6   22 1   
    22    6   23 1   
    23    7   24 1   
    24    7   25 1   
    25   10   26 1   
    26   10   27 1   
    27   10   28 1   
@<TRIPOS>SUBSTRUCTURE
     1 MOL         1 TEMP              0 ****  ****    0 ROOT
