@<TRIPOS>MOLECULE
4-chloro-3-methyl-phenol
   16    16     1     0     0
SMALL
No Charge or Current Charge


@<TRIPOS>ATOM
      1 C1          1.9680   -1.0330   -1.6050 c3        1 MOL     -0.061900
      2 C2          1.8850   -1.0360   -0.1120 ca        1 MOL     -0.029600
      3 C3          2.9210   -1.6310    0.6080 ca        1 MOL     -0.155600
      4 C4          2.8780   -1.6520    2.0020 ca        1 MOL      0.129600
      5 C5          1.8000   -1.0790    2.6760 ca        1 MOL     -0.211800
      6 C6          0.7640   -0.4840    1.9550 ca        1 MOL     -0.081800
      7 C7          0.8070   -0.4630    0.5610 ca        1 MOL     -0.020800
      8 Cl1        -0.4930    0.2820   -0.2960 cl        1 MOL     -0.097300
      9 O1          3.8890   -2.2320    2.7060 oh        1 MOL     -0.494600
     10 H1          2.4860   -0.1320   -1.9480 hc        1 MOL      0.053900
     11 H2          2.5090   -1.9130   -1.9680 hc        1 MOL      0.053900
     12 H3          0.9690   -1.0590   -2.0520 hc        1 MOL      0.053900
     13 H4          3.7640   -2.0780    0.0870 ha        1 MOL      0.155300
     14 H5          1.7610   -1.0920    3.7620 ha        1 MOL      0.138200
     15 H6         -0.0700   -0.0420    2.4950 ha        1 MOL      0.147800
     16 H7          3.7160   -2.1670    3.6590 ho        1 MOL      0.420800
@<TRIPOS>BOND
     1    1    2 1   
     2    2    7 ar  
     3    2    3 ar  
     4    3    4 ar  
     5    4    5 ar  
     6    5    6 ar  
     7    6    7 ar  
     8    7    8 1   
     9    4    9 1   
    10    1   10 1   
    11    1   11 1   
    12    1   12 1   
    13    3   13 1   
    14    5   14 1   
    15    6   15 1   
    16    9   16 1   
@<TRIPOS>SUBSTRUCTURE
     1 MOL         1 TEMP              0 ****  ****    0 ROOT
