@<TRIPOS>MOLECULE
2-chloro-N-(2,6-diethylphenyl)-N-(methoxymethyl)acetamide
   38    38     1     0     0
SMALL
No Charge or Current Charge


@<TRIPOS>ATOM
      1 C1          1.7540    0.6240   -4.1880 c3        1 MOL     -0.096000
      2 C2          0.3770    0.0310   -3.9280 c3        1 MOL     -0.037100
      3 C3          0.4590   -1.3980   -3.5000 ca        1 MOL     -0.048300
      4 C4          0.4280   -2.3940   -4.4770 ca        1 MOL     -0.133700
      5 C5          0.5030   -3.7370   -4.1060 ca        1 MOL     -0.117500
      6 C6          0.6090   -4.0840   -2.7600 ca        1 MOL     -0.133700
      7 C7          0.6400   -3.0880   -1.7830 ca        1 MOL     -0.048300
      8 C8          0.5650   -1.7450   -2.1530 ca        1 MOL      0.054500
      9 N1          0.5980   -0.7120   -1.1390 n         1 MOL     -0.406200
     10 C9          1.8990   -0.1510   -0.7260 c3        1 MOL      0.302400
     11 O1          2.0810   -0.3840    0.6690 os        1 MOL     -0.420700
     12 C10         3.3210    0.1340    1.1290 c3        1 MOL      0.116800
     13 C11        -0.6200   -0.2650   -0.5700 c         1 MOL      0.663100
     14 O2         -0.7060    0.6070    0.2980 o         1 MOL     -0.553900
     15 C12        -1.8740   -0.9140   -1.1320 c3        1 MOL     -0.051300
     16 Cl1        -3.3280   -0.2720   -0.3400 cl        1 MOL     -0.132900
     17 C13         0.7550   -3.4920   -0.3480 c3        1 MOL     -0.037100
     18 C14         2.2070   -3.5960    0.1080 c3        1 MOL     -0.096000
     19 H1          1.6830    1.6710   -4.5010 hc        1 MOL      0.040900
     20 H2          2.2610    0.0660   -4.9810 hc        1 MOL      0.040900
     21 H3          2.3800    0.5830   -3.2900 hc        1 MOL      0.040900
     22 H4         -0.2380    0.1110   -4.8330 hc        1 MOL      0.045200
     23 H5         -0.1400    0.6180   -3.1580 hc        1 MOL      0.045200
     24 H6          0.3460   -2.1340   -5.5290 ha        1 MOL      0.133100
     25 H7          0.4790   -4.5120   -4.8670 ha        1 MOL      0.131500
     26 H8          0.6680   -5.1320   -2.4810 ha        1 MOL      0.133100
     27 H9          1.9290    0.9240   -0.9210 h2        1 MOL      0.032700
     28 H10         2.7110   -0.5970   -1.3120 h2        1 MOL      0.032700
     29 H11         3.4210   -0.0640    2.1970 h1        1 MOL      0.038800
     30 H12         3.3550    1.2080    0.9390 h1        1 MOL      0.038800
     31 H13         4.1300   -0.3590    0.5880 h1        1 MOL      0.038800
     32 H14        -1.8530   -1.9910   -0.9460 h1        1 MOL      0.085200
     33 H15        -1.9690   -0.7070   -2.2000 h1        1 MOL      0.085200
     34 H16         0.2240   -2.7720    0.2930 hc        1 MOL      0.045200
     35 H17         0.2530   -4.4580   -0.1830 hc        1 MOL      0.045200
     36 H18         2.2680   -3.8920    1.1610 hc        1 MOL      0.040900
     37 H19         2.7160   -2.6330   -0.0030 hc        1 MOL      0.040900
     38 H20         2.7530   -4.3390   -0.4830 hc        1 MOL      0.040900
@<TRIPOS>BOND
     1    1    2 1   
     2    2    3 1   
     3    3    8 ar  
     4    3    4 ar  
     5    4    5 ar  
     6    5    6 ar  
     7    6    7 ar  
     8    7    8 ar  
     9    8    9 1   
    10    9   10 1   
    11   10   11 1   
    12   11   12 1   
    13    9   13 1   
    14   13   14 2   
    15   13   15 1   
    16   15   16 1   
    17    7   17 1   
    18   17   18 1   
    19    1   19 1   
    20    1   20 1   
    21    1   21 1   
    22    2   22 1   
    23    2   23 1   
    24    4   24 1   
    25    5   25 1   
    26    6   26 1   
    27   10   27 1   
    28   10   28 1   
    29   12   29 1   
    30   12   30 1   
    31   12   31 1   
    32   15   32 1   
    33   15   33 1   
    34   17   34 1   
    35   17   35 1   
    36   18   36 1   
    37   18   37 1   
    38   18   38 1   
@<TRIPOS>SUBSTRUCTURE
     1 MOL         1 TEMP              0 ****  ****    0 ROOT
