@<TRIPOS>MOLECULE
3-chloropyridine
   11    11     1     0     0
SMALL
No Charge or Current Charge


@<TRIPOS>ATOM
      1 C1          1.6520   -0.6230    2.9000 ca        1 MOL     -0.235900
      2 C2          1.3880   -0.0680    1.6520 ca        1 MOL     -0.090900
      3 C3          0.2270   -0.4200    0.9730 ca        1 MOL     -0.106300
      4 C4         -0.6320   -1.3220    1.5800 ca        1 MOL      0.404800
      5 N1         -0.4090   -1.8820    2.7910 nb        1 MOL     -0.655900
      6 C5          0.7300   -1.5160    3.4210 ca        1 MOL      0.393600
      7 Cl1        -0.1320    0.2430   -0.5670 cl        1 MOL     -0.073400
      8 H1          2.5510   -0.3640    3.4470 ha        1 MOL      0.150500
      9 H2          2.0950    0.6350    1.2210 ha        1 MOL      0.150900
     10 H3         -1.5540   -1.6370    1.1020 h4        1 MOL      0.036400
     11 H4          0.8890   -1.9760    4.3900 h4        1 MOL      0.026400
@<TRIPOS>BOND
     1    1    6 ar  
     2    1    2 ar  
     3    2    3 ar  
     4    3    4 ar  
     5    4    5 ar  
     6    5    6 ar  
     7    3    7 1   
     8    1    8 1   
     9    2    9 1   
    10    4   10 1   
    11    6   11 1   
@<TRIPOS>SUBSTRUCTURE
     1 MOL         1 TEMP              0 ****  ****    0 ROOT
