@<TRIPOS>MOLECULE
chloroform
    5     4     1     0     0
SMALL
No Charge or Current Charge


@<TRIPOS>ATOM
      1 C1         -0.0650    0.0830   -0.0480 c3        1 MOL      0.224300
      2 Cl1        -0.9540   -1.4480   -0.1350 cl        1 MOL     -0.114400
      3 Cl2         0.2490    0.5250    1.6390 cl        1 MOL     -0.114400
      4 Cl3         1.4520   -0.0250   -0.9570 cl        1 MOL     -0.114400
      5 H1         -0.6820    0.8650   -0.4990 h3        1 MOL      0.118900
@<TRIPOS>BOND
     1    1    2 1   
     2    1    3 1   
     3    1    4 1   
     4    1    5 1   
@<TRIPOS>SUBSTRUCTURE
     1 MOL         1 TEMP              0 ****  ****    0 ROOT
