@<TRIPOS>MOLECULE
m-cresol
   16    16     1     0     0
SMALL
No Charge or Current Charge


@<TRIPOS>ATOM
      1 C1          1.9310   -1.0140   -1.6030 c3        1 MOL     -0.056700
      2 C2          1.8850   -1.0360   -0.1120 ca        1 MOL     -0.043000
      3 C3          2.9210   -1.6310    0.6080 ca        1 MOL     -0.166200
      4 C4          2.8780   -1.6520    2.0020 ca        1 MOL     -0.088100
      5 C5          1.8000   -1.0790    2.6760 ca        1 MOL     -0.219700
      6 C6          0.7640   -0.4840    1.9550 ca        1 MOL      0.127400
      7 C7          0.8070   -0.4630    0.5610 ca        1 MOL     -0.158600
      8 O1         -0.2880    0.0760    2.6120 oh        1 MOL     -0.499600
      9 H1          2.4390   -0.1080   -1.9480 hc        1 MOL      0.046500
     10 H2          2.4640   -1.8880   -1.9910 hc        1 MOL      0.046500
     11 H3          0.9210   -1.0360   -2.0250 hc        1 MOL      0.046500
     12 H4          3.7650   -2.0800    0.0920 ha        1 MOL      0.133200
     13 H5          3.6850   -2.1150    2.5630 ha        1 MOL      0.131700
     14 H6          1.7720   -1.0980    3.7620 ha        1 MOL      0.132300
     15 H7         -0.0020    0.0010    0.0020 ha        1 MOL      0.149400
     16 H8         -0.1740   -0.0180    3.5710 ho        1 MOL      0.418400
@<TRIPOS>BOND
     1    1    2 1   
     2    2    7 ar  
     3    2    3 ar  
     4    3    4 ar  
     5    4    5 ar  
     6    5    6 ar  
     7    6    7 ar  
     8    6    8 1   
     9    1    9 1   
    10    1   10 1   
    11    1   11 1   
    12    3   12 1   
    13    4   13 1   
    14    5   14 1   
    15    7   15 1   
    16    8   16 1   
@<TRIPOS>SUBSTRUCTURE
     1 MOL         1 TEMP              0 ****  ****    0 ROOT
