@<TRIPOS>MOLECULE
methyl
   20    20     1     0     0
SMALL
No Charge or Current Charge


@<TRIPOS>ATOM
      1 C1          0.5850   -1.0140   -3.5070 c3        1 MOL      0.122800
      2 O1          0.6730   -1.0320   -2.0780 os        1 MOL     -0.433500
      3 C2          1.9300   -1.0150   -1.5660 c         1 MOL      0.637700
      4 O2          2.9710   -0.9860   -2.2040 o         1 MOL     -0.517900
      5 C3          1.8850   -1.0360   -0.1120 ca        1 MOL     -0.090400
      6 C4          2.9210   -1.6310    0.6080 ca        1 MOL     -0.085600
      7 C5          2.8780   -1.6520    2.0020 ca        1 MOL     -0.082700
      8 C6          1.8000   -1.0790    2.6760 ca        1 MOL     -0.149500
      9 C7          0.7640   -0.4840    1.9550 ca        1 MOL     -0.082700
     10 C8          0.8070   -0.4630    0.5610 ca        1 MOL     -0.085600
     11 N1          1.7570   -1.1000    4.0950 no        1 MOL      0.309100
     12 O3          0.7780   -0.5790    4.6810 o         1 MOL     -0.200800
     13 O4          2.6990   -1.6390    4.7230 o         1 MOL     -0.200800
     14 H1         -0.4650   -1.0300   -3.8080 h1        1 MOL      0.054800
     15 H2          1.1060   -1.8840   -3.9150 h1        1 MOL      0.054800
     16 H3          1.0550   -0.1020   -3.8810 h1        1 MOL      0.054800
     17 H4          3.7660   -2.0800    0.0930 ha        1 MOL      0.169600
     18 H5          3.6920   -2.1180    2.5520 ha        1 MOL      0.178200
     19 H6         -0.0830   -0.0340    2.4670 ha        1 MOL      0.178200
     20 H7         -0.0070    0.0020    0.0090 ha        1 MOL      0.169600
@<TRIPOS>BOND
     1    1    2 1   
     2    2    3 1   
     3    3    4 2   
     4    3    5 1   
     5    5   10 ar  
     6    5    6 ar  
     7    6    7 ar  
     8    7    8 ar  
     9    8    9 ar  
    10    9   10 ar  
    11    8   11 1   
    12   11   12 1   
    13   11   13 1   
    14    1   14 1   
    15    1   15 1   
    16    1   16 1   
    17    6   17 1   
    18    7   18 1   
    19    9   19 1   
    20   10   20 1   
@<TRIPOS>SUBSTRUCTURE
     1 MOL         1 TEMP              0 ****  ****    0 ROOT
