@<TRIPOS>MOLECULE
methyl
   24    24     1     0     0
SMALL
No Charge or Current Charge


@<TRIPOS>ATOM
      1 C1          0.5120    0.8260    1.2900 c3        1 MOL      0.125900
      2 O1          0.2960   -0.4210    0.6210 os        1 MOL     -0.446100
      3 C2          0.7300   -0.4750   -0.6710 c         1 MOL      0.632000
      4 O2          1.2740    0.4270   -1.2930 o         1 MOL     -0.538600
      5 C3          0.4390   -1.8330   -1.2410 c3        1 MOL     -0.100900
      6 C4          1.0890   -2.9170   -0.3780 c3        1 MOL     -0.071100
      7 C5          2.5980   -3.0260   -0.5900 c3        1 MOL     -0.080600
      8 C6          2.9490   -3.1870   -2.0640 c3        1 MOL     -0.078000
      9 C7          2.3700   -2.0530   -2.9020 c3        1 MOL     -0.080600
     10 C8          0.8600   -1.9150   -2.7090 c3        1 MOL     -0.071100
     11 H1          0.1310    0.7620    2.3120 h1        1 MOL      0.048700
     12 H2          0.0010    1.6250    0.7470 h1        1 MOL      0.048700
     13 H3          1.5840    1.0340    1.3160 h1        1 MOL      0.048700
     14 H4         -0.6500   -1.9510   -1.1800 hc        1 MOL      0.078000
     15 H5          0.8870   -2.7310    0.6840 hc        1 MOL      0.053200
     16 H6          0.6300   -3.8840   -0.6230 hc        1 MOL      0.053200
     17 H7          3.0980   -2.1370   -0.1880 hc        1 MOL      0.047900
     18 H8          2.9830   -3.8840   -0.0270 hc        1 MOL      0.047900
     19 H9          4.0380   -3.2150   -2.1830 hc        1 MOL      0.040200
     20 H10         2.5630   -4.1460   -2.4310 hc        1 MOL      0.040200
     21 H11         2.8630   -1.1110   -2.6300 hc        1 MOL      0.047900
     22 H12         2.5900   -2.2280   -3.9620 hc        1 MOL      0.047900
     23 H13         0.5070   -1.0340   -3.2590 hc        1 MOL      0.053200
     24 H14         0.3720   -2.7860   -3.1650 hc        1 MOL      0.053200
@<TRIPOS>BOND
     1    1    2 1   
     2    2    3 1   
     3    3    4 2   
     4    3    5 1   
     5    5   10 1   
     6    5    6 1   
     7    6    7 1   
     8    7    8 1   
     9    8    9 1   
    10    9   10 1   
    11    1   11 1   
    12    1   12 1   
    13    1   13 1   
    14    5   14 1   
    15    6   15 1   
    16    6   16 1   
    17    7   17 1   
    18    7   18 1   
    19    8   19 1   
    20    8   20 1   
    21    9   21 1   
    22    9   22 1   
    23   10   23 1   
    24   10   24 1   
@<TRIPOS>SUBSTRUCTURE
     1 MOL         1 TEMP              0 ****  ****    0 ROOT
