@<TRIPOS>MOLECULE
3-(dimethoxyphosphinothioylsulfanylmethyl)-1,2,3-benzotriazin-4-one
   31    32     1     0     0
SMALL
No Charge or Current Charge


@<TRIPOS>ATOM
      1 C1          0.8990    0.3180    0.1370 c3        1 MOL      0.127300
      2 O1          1.1460   -1.0760    0.0650 os        1 MOL     -0.497600
      3 P1          2.0710   -1.6910   -1.1350 p5        1 MOL      0.857900
      4 S1          1.3290   -1.3170   -2.9120 s         1 MOL     -0.425500
      5 O2          1.9400   -3.2710   -0.7340 os        1 MOL     -0.497600
      6 C2          2.5950   -4.2640   -1.5070 c3        1 MOL      0.127300
      7 S2          4.0770   -1.1110   -0.7260 ss        1 MOL     -0.395400
      8 C3          4.4610   -1.8270    0.8830 c3        1 MOL      0.328900
      9 N1          5.8000   -1.5040    1.2750 n         1 MOL     -0.276500
     10 C4          6.8360   -2.3670    0.9100 c         1 MOL      0.693900
     11 O3          6.6920   -3.4020    0.2670 o         1 MOL     -0.596900
     12 C5          8.1740   -1.9700    1.3480 ca        1 MOL     -0.165500
     13 C6          9.3030   -2.7400    1.0530 ca        1 MOL     -0.064700
     14 C7         10.5550   -2.3160    1.4930 ca        1 MOL     -0.130600
     15 C8         10.6720   -1.1340    2.2210 ca        1 MOL     -0.098500
     16 C9          9.5350   -0.3750    2.5080 ca        1 MOL     -0.093900
     17 C10         8.2710   -0.7890    2.0710 ca        1 MOL      0.110300
     18 N2          7.1580    0.0010    2.3780 nc        1 MOL     -0.227700
     19 N3          6.0210   -0.3530    1.9980 nd        1 MOL      0.027300
     20 H1          0.2650    0.5320    1.0010 h1        1 MOL      0.066700
     21 H2          0.4060    0.6490   -0.7810 h1        1 MOL      0.066700
     22 H3          1.8500    0.8430    0.2470 h1        1 MOL      0.066700
     23 H4          2.3880   -5.2480   -1.0830 h1        1 MOL      0.066700
     24 H5          3.6710   -4.0720   -1.5070 h1        1 MOL      0.066700
     25 H6          2.2170   -4.2210   -2.5300 h1        1 MOL      0.066700
     26 H7          4.3710   -2.9160    0.8450 h2        1 MOL      0.090400
     27 H8          3.7800   -1.4370    1.6430 h2        1 MOL      0.090400
     28 H9          9.2260   -3.6630    0.4870 ha        1 MOL      0.164800
     29 H10        11.4390   -2.9060    1.2700 ha        1 MOL      0.145900
     30 H11        11.6470   -0.8010    2.5650 ha        1 MOL      0.144700
     31 H12         9.6430    0.5460    3.0770 ha        1 MOL      0.161200
@<TRIPOS>BOND
     1    1    2 1   
     2    2    3 1   
     3    3    4 2   
     4    3    5 1   
     5    5    6 1   
     6    3    7 1   
     7    7    8 1   
     8    8    9 1   
     9    9   19 1   
    10    9   10 1   
    11   10   11 2   
    12   10   12 1   
    13   12   17 ar  
    14   12   13 ar  
    15   13   14 ar  
    16   14   15 ar  
    17   15   16 ar  
    18   16   17 ar  
    19   17   18 1   
    20   18   19 2   
    21    1   20 1   
    22    1   21 1   
    23    1   22 1   
    24    6   23 1   
    25    6   24 1   
    26    6   25 1   
    27    8   26 1   
    28    8   27 1   
    29   13   28 1   
    30   14   29 1   
    31   15   30 1   
    32   16   31 1   
@<TRIPOS>SUBSTRUCTURE
     1 MOL         1 TEMP              0 ****  ****    0 ROOT
