@<TRIPOS>MOLECULE
1,2,3,4-tetrachloro-5-(3,4-dichlorophenyl)benzene
   22    23     1     0     0
SMALL
No Charge or Current Charge


@<TRIPOS>ATOM
      1 C1          1.8850   -1.0360   -0.1120 ca        1 MOL     -0.097900
      2 C2          2.9210   -1.6310    0.6080 ca        1 MOL     -0.119300
      3 C3          2.8780   -1.6520    2.0020 ca        1 MOL      0.024700
      4 C4          1.8000   -1.0790    2.6760 ca        1 MOL      0.015400
      5 C5          0.7640   -0.4840    1.9550 ca        1 MOL     -0.094500
      6 C6          0.8070   -0.4630    0.5610 cp        1 MOL     -0.046200
      7 C7         -0.2670    0.1540   -0.1870 cp        1 MOL     -0.025300
      8 C8         -0.1520    1.5110   -0.4880 ca        1 MOL     -0.098200
      9 C9         -1.1600    2.1540   -1.2070 ca        1 MOL      0.019100
     10 C10        -2.2820    1.4400   -1.6260 ca        1 MOL      0.024500
     11 C11        -2.3970    0.0820   -1.3260 ca        1 MOL      0.019200
     12 C12        -1.3890   -0.5600   -0.6060 ca        1 MOL      0.034200
     13 Cl1        -1.5140   -2.2530   -0.2160 cl        1 MOL     -0.042200
     14 Cl2        -3.7980   -0.8120   -1.8470 cl        1 MOL     -0.035100
     15 Cl3        -3.5310    2.2550   -2.5230 cl        1 MOL     -0.033700
     16 Cl4        -0.9430    3.8380   -1.5430 cl        1 MOL     -0.050800
     17 Cl5         1.6920   -1.0700    4.4010 cl        1 MOL     -0.062600
     18 Cl6         4.1940   -2.3990    2.8380 cl        1 MOL     -0.062500
     19 H1          1.9320   -1.0280   -1.1990 ha        1 MOL      0.150300
     20 H2          3.7530   -2.0750    0.0670 ha        1 MOL      0.155000
     21 H3         -0.0790   -0.0350    2.4780 ha        1 MOL      0.159700
     22 H4          0.7250    2.0680   -0.1630 ha        1 MOL      0.166200
@<TRIPOS>BOND
     1    1    6 ar  
     2    1    2 ar  
     3    2    3 ar  
     4    3    4 ar  
     5    4    5 ar  
     6    5    6 ar  
     7    6    7 1   
     8    7   12 ar  
     9    7    8 ar  
    10    8    9 ar  
    11    9   10 ar  
    12   10   11 ar  
    13   11   12 ar  
    14   12   13 1   
    15   11   14 1   
    16   10   15 1   
    17    9   16 1   
    18    4   17 1   
    19    3   18 1   
    20    1   19 1   
    21    2   20 1   
    22    5   21 1   
    23    8   22 1   
@<TRIPOS>SUBSTRUCTURE
     1 MOL         1 TEMP              0 ****  ****    0 ROOT
