@<TRIPOS>MOLECULE
2-methoxyphenol
   17    17     1     0     0
SMALL
No Charge or Current Charge


@<TRIPOS>ATOM
      1 C1          3.0740   -1.6290   -2.0770 c3        1 MOL      0.117900
      2 O1          1.9380   -1.0220   -1.4740 os        1 MOL     -0.343000
      3 C2          1.8850   -1.0360   -0.1120 ca        1 MOL      0.035900
      4 C3          2.9210   -1.6310    0.6080 ca        1 MOL     -0.161000
      5 C4          2.8780   -1.6520    2.0020 ca        1 MOL     -0.136200
      6 C5          1.8000   -1.0790    2.6760 ca        1 MOL     -0.124500
      7 C6          0.7640   -0.4840    1.9550 ca        1 MOL     -0.137200
      8 C7          0.8070   -0.4630    0.5610 ca        1 MOL      0.112600
      9 O2         -0.2120    0.1190   -0.1310 oh        1 MOL     -0.496400
     10 H1          2.9960   -1.5520   -3.1640 h1        1 MOL      0.045500
     11 H2          3.1280   -2.6800   -1.7790 h1        1 MOL      0.045500
     12 H3          3.9750   -1.1110   -1.7410 h1        1 MOL      0.045500
     13 H4          3.7640   -2.0800    0.0900 ha        1 MOL      0.137400
     14 H5          3.6860   -2.1140    2.5630 ha        1 MOL      0.134200
     15 H6          1.7660   -1.0970    3.7610 ha        1 MOL      0.135900
     16 H7         -0.0740   -0.0400    2.4850 ha        1 MOL      0.151600
     17 H8         -0.0460    0.0590   -1.0850 ho        1 MOL      0.436100
@<TRIPOS>BOND
     1    1    2 1   
     2    2    3 1   
     3    3    8 ar  
     4    3    4 ar  
     5    4    5 ar  
     6    5    6 ar  
     7    6    7 ar  
     8    7    8 ar  
     9    8    9 1   
    10    1   10 1   
    11    1   11 1   
    12    1   12 1   
    13    4   13 1   
    14    5   14 1   
    15    6   15 1   
    16    7   16 1   
    17    9   17 1   
@<TRIPOS>SUBSTRUCTURE
     1 MOL         1 TEMP              0 ****  ****    0 ROOT
