@<TRIPOS>MOLECULE
(2R)-4-methylpentan-2-ol
   21    20     1     0     0
SMALL
No Charge or Current Charge


@<TRIPOS>ATOM
      1 C1          1.5230   -0.0310   -2.8940 c3        1 MOL     -0.128700
      2 C2          1.1130    1.2950   -2.2680 c3        1 MOL      0.142300
      3 H1          1.4500    1.3370   -1.2270 h1        1 MOL      0.031000
      4 C3         -0.3930    1.5690   -2.3520 c3        1 MOL     -0.075000
      5 C4         -1.3050    0.5380   -1.6610 c3        1 MOL     -0.064200
      6 C5         -1.0220    0.4220   -0.1630 c3        1 MOL     -0.091100
      7 C6         -2.7720    0.9160   -1.8830 c3        1 MOL     -0.091100
      8 O1          1.7780    2.3500   -2.9650 oh        1 MOL     -0.605400
      9 H2          1.1930   -0.0900   -3.9370 hc        1 MOL      0.042300
     10 H3          2.6140   -0.1280   -2.9050 hc        1 MOL      0.042300
     11 H4          1.1130   -0.8840   -2.3460 hc        1 MOL      0.042300
     12 H5         -0.5860    2.5670   -1.9350 hc        1 MOL      0.054200
     13 H6         -0.6760    1.6480   -3.4110 hc        1 MOL      0.054200
     14 H7         -1.1480   -0.4460   -2.1190 hc        1 MOL      0.044900
     15 H8         -1.6800   -0.3150    0.3090 hc        1 MOL      0.034200
     16 H9         -1.1640    1.3820    0.3440 hc        1 MOL      0.034200
     17 H10         0.0130    0.1130    0.0140 hc        1 MOL      0.034200
     18 H11        -3.4370    0.1940   -1.3980 hc        1 MOL      0.034200
     19 H12        -2.9880    1.9030   -1.4600 hc        1 MOL      0.034200
     20 H13        -3.0190    0.9430   -2.9500 hc        1 MOL      0.034200
     21 H14         2.7280    2.1880   -2.8630 ho        1 MOL      0.397000
@<TRIPOS>BOND
     1    1    2 1   
     2    2    3 1   
     3    2    4 1   
     4    4    5 1   
     5    5    6 1   
     6    5    7 1   
     7    2    8 1   
     8    1    9 1   
     9    1   10 1   
    10    1   11 1   
    11    4   12 1   
    12    4   13 1   
    13    5   14 1   
    14    6   15 1   
    15    6   16 1   
    16    6   17 1   
    17    7   18 1   
    18    7   19 1   
    19    7   20 1   
    20    8   21 1   
@<TRIPOS>SUBSTRUCTURE
     1 MOL         1 TEMP              0 ****  ****    0 ROOT
