@<TRIPOS>MOLECULE
1-bromooctane
   26    25     1     0     0
SMALL
No Charge or Current Charge


@<TRIPOS>ATOM
      1 C1          4.3910    1.3490   -1.1540 c3        1 MOL     -0.092400
      2 C2          2.9580    1.2150   -1.6470 c3        1 MOL     -0.079300
      3 C3          2.0790    0.5030   -0.6180 c3        1 MOL     -0.079200
      4 C4          0.6240    0.3430   -1.0680 c3        1 MOL     -0.078200
      5 C5         -0.2560   -0.3700   -0.0380 c3        1 MOL     -0.078600
      6 C6         -1.6960   -0.5030   -0.5380 c3        1 MOL     -0.081200
      7 C7         -2.5790   -1.2140    0.4890 c3        1 MOL     -0.081300
      8 C8         -4.0060   -1.3430   -0.0140 c3        1 MOL     -0.010000
      9 Br1        -5.0960   -2.2520    1.3180 br        1 MOL     -0.177700
     10 H1          5.0150    1.8590   -1.8950 hc        1 MOL      0.033300
     11 H2          4.4200    1.9310   -0.2280 hc        1 MOL      0.033300
     12 H3          4.8300    0.3670   -0.9520 hc        1 MOL      0.033300
     13 H4          2.9540    0.6570   -2.5910 hc        1 MOL      0.038300
     14 H5          2.5650    2.2160   -1.8570 hc        1 MOL      0.038300
     15 H6          2.4890   -0.4960   -0.4270 hc        1 MOL      0.039300
     16 H7          2.1120    1.0440    0.3360 hc        1 MOL      0.039300
     17 H8          0.2000    1.3270   -1.2990 hc        1 MOL      0.039900
     18 H9          0.6170   -0.2320   -2.0030 hc        1 MOL      0.039900
     19 H10        -0.2550    0.1860    0.9060 hc        1 MOL      0.041900
     20 H11         0.1540   -1.3660    0.1700 hc        1 MOL      0.041900
     21 H12        -2.1060    0.4930   -0.7460 hc        1 MOL      0.041700
     22 H13        -1.7080   -1.0620   -1.4820 hc        1 MOL      0.041700
     23 H14        -2.5630   -0.6580    1.4340 hc        1 MOL      0.056500
     24 H15        -2.1660   -2.2080    0.7010 hc        1 MOL      0.056500
     25 H16        -4.4700   -0.3670   -0.1840 h1        1 MOL      0.071400
     26 H17        -4.0670   -1.9400   -0.9280 h1        1 MOL      0.071400
@<TRIPOS>BOND
     1    1    2 1   
     2    2    3 1   
     3    3    4 1   
     4    4    5 1   
     5    5    6 1   
     6    6    7 1   
     7    7    8 1   
     8    8    9 1   
     9    1   10 1   
    10    1   11 1   
    11    1   12 1   
    12    2   13 1   
    13    2   14 1   
    14    3   15 1   
    15    3   16 1   
    16    4   17 1   
    17    4   18 1   
    18    5   19 1   
    19    5   20 1   
    20    6   21 1   
    21    6   22 1   
    22    7   23 1   
    23    7   24 1   
    24    8   25 1   
    25    8   26 1   
@<TRIPOS>SUBSTRUCTURE
     1 MOL         1 TEMP              0 ****  ****    0 ROOT
