@<TRIPOS>MOLECULE
acetonitrile
    6     5     1     0     0
SMALL
No Charge or Current Charge


@<TRIPOS>ATOM
      1 C1          0.4480    0.2840    0.9570 c3        1 MOL     -0.044500
      2 C2         -0.2060    1.4710    1.5040 c1        1 MOL      0.208100
      3 N1         -0.7250    2.4140    1.9390 n1        1 MOL     -0.375900
      4 H1         -0.2830   -0.5070    0.7620 hc        1 MOL      0.070800
      5 H2          1.1930   -0.1070    1.6560 hc        1 MOL      0.070800
      6 H3          0.9550    0.5180    0.0160 hc        1 MOL      0.070800
@<TRIPOS>BOND
     1    1    2 1   
     2    2    3 3   
     3    1    4 1   
     4    1    5 1   
     5    1    6 1   
@<TRIPOS>SUBSTRUCTURE
     1 MOL         1 TEMP              0 ****  ****    0 ROOT
