@<TRIPOS>MOLECULE
anthracene
   24    26     1     0     0
SMALL
No Charge or Current Charge


@<TRIPOS>ATOM
      1 C1          1.1580    1.7940   -0.2580 ca        1 MOL     -0.126600
      2 C2         -0.0270    1.0690   -0.1890 ca        1 MOL     -0.126400
      3 C3         -1.2510    1.7150   -0.3640 ca        1 MOL     -0.117900
      4 C4         -1.3050    3.0970   -0.6100 ca        1 MOL     -0.033500
      5 C5         -2.5290    3.7620   -0.7880 ca        1 MOL     -0.106500
      6 C6         -2.5820    5.1450   -1.0340 ca        1 MOL     -0.033500
      7 C7         -3.8060    5.8110   -1.2120 ca        1 MOL     -0.117900
      8 C8         -3.8420    7.1840   -1.4560 ca        1 MOL     -0.126400
      9 C9         -2.6570    7.9090   -1.5240 ca        1 MOL     -0.126400
     10 C10        -1.4330    7.2630   -1.3490 ca        1 MOL     -0.117900
     11 C11        -1.3790    5.8810   -1.1030 ca        1 MOL     -0.033500
     12 C12        -0.1540    5.2160   -0.9250 ca        1 MOL     -0.106500
     13 C13        -0.1020    3.8330   -0.6790 ca        1 MOL     -0.033500
     14 C14         1.1220    3.1680   -0.5010 ca        1 MOL     -0.117900
     15 H1          2.1120    1.2920   -0.1220 ha        1 MOL      0.132400
     16 H2          0.0000    0.0000   -0.0000 ha        1 MOL      0.132400
     17 H3         -2.1650    1.1280   -0.3070 ha        1 MOL      0.131700
     18 H4         -3.4580    3.1940   -0.7350 ha        1 MOL      0.134000
     19 H5         -4.7450    5.2630   -1.1630 ha        1 MOL      0.131700
     20 H6         -4.7950    7.6860   -1.5920 ha        1 MOL      0.132400
     21 H7         -2.6830    8.9780   -1.7130 ha        1 MOL      0.132400
     22 H8         -0.5180    7.8500   -1.4070 ha        1 MOL      0.131700
     23 H9          0.7740    5.7840   -0.9780 ha        1 MOL      0.134000
     24 H10         2.0620    3.7150   -0.5500 ha        1 MOL      0.131700
@<TRIPOS>BOND
     1    1   14 ar  
     2    1    2 ar  
     3    2    3 ar  
     4    3    4 ar  
     5    4   13 ar  
     6    4    5 ar  
     7    5    6 ar  
     8    6   11 ar  
     9    6    7 ar  
    10    7    8 ar  
    11    8    9 ar  
    12    9   10 ar  
    13   10   11 ar  
    14   11   12 ar  
    15   12   13 ar  
    16   13   14 ar  
    17    1   15 1   
    18    2   16 1   
    19    3   17 1   
    20    5   18 1   
    21    7   19 1   
    22    8   20 1   
    23    9   21 1   
    24   10   22 1   
    25   12   23 1   
    26   14   24 1   
@<TRIPOS>SUBSTRUCTURE
     1 MOL         1 TEMP              0 ****  ****    0 ROOT
