@<TRIPOS>MOLECULE
styrene
   16    16     1     0     0
SMALL
No Charge or Current Charge


@<TRIPOS>ATOM
      1 C1          1.3830   -0.0580   -2.3280 c2        1 MOL     -0.208800
      2 C2          1.9300   -1.0140   -1.5660 ce        1 MOL     -0.114500
      3 C3          1.8850   -1.0360   -0.1120 ca        1 MOL     -0.059700
      4 C4          2.9210   -1.6310    0.6080 ca        1 MOL     -0.119100
      5 C5          2.8780   -1.6520    2.0020 ca        1 MOL     -0.130500
      6 C6          1.8000   -1.0790    2.6760 ca        1 MOL     -0.127800
      7 C7          0.7640   -0.4840    1.9550 ca        1 MOL     -0.130500
      8 C8          0.8070   -0.4630    0.5610 ca        1 MOL     -0.119100
      9 H1          1.4750   -0.1160   -3.4080 ha        1 MOL      0.114000
     10 H2          0.8520    0.7980   -1.9300 ha        1 MOL      0.114000
     11 H3          2.4660   -1.8130   -2.0740 ha        1 MOL      0.124300
     12 H4          3.7680   -2.0820    0.0980 ha        1 MOL      0.132500
     13 H5          3.6850   -2.1150    2.5630 ha        1 MOL      0.131200
     14 H6          1.7660   -1.0950    3.7610 ha        1 MOL      0.130400
     15 H7         -0.0760   -0.0380    2.4800 ha        1 MOL      0.131200
     16 H8         -0.0090    0.0040    0.0130 ha        1 MOL      0.132500
@<TRIPOS>BOND
     1    1    2 2   
     2    2    3 1   
     3    3    8 ar  
     4    3    4 ar  
     5    4    5 ar  
     6    5    6 ar  
     7    6    7 ar  
     8    7    8 ar  
     9    1    9 1   
    10    1   10 1   
    11    2   11 1   
    12    4   12 1   
    13    5   13 1   
    14    6   14 1   
    15    7   15 1   
    16    8   16 1   
@<TRIPOS>SUBSTRUCTURE
     1 MOL         1 TEMP              0 ****  ****    0 ROOT
