@<TRIPOS>MOLECULE
1,2,3,4-tetrachloro-5-(2,3,4-trichlorophenyl)benzene
   22    23     1     0     0
SMALL
No Charge or Current Charge


@<TRIPOS>ATOM
      1 C1          1.8850   -1.0360   -0.1120 ca        1 MOL     -0.091500
      2 C2          2.9210   -1.6310    0.6080 ca        1 MOL     -0.120700
      3 C3          2.8780   -1.6520    2.0020 ca        1 MOL      0.030900
      4 C4          1.8000   -1.0790    2.6760 ca        1 MOL      0.013100
      5 C5          0.7640   -0.4840    1.9550 ca        1 MOL      0.044200
      6 C6          0.8070   -0.4630    0.5610 cp        1 MOL     -0.039700
      7 C7         -0.2440    0.1420   -0.2380 cp        1 MOL     -0.025800
      8 C8         -0.1170    1.4930   -0.5610 ca        1 MOL     -0.092400
      9 C9         -1.0980    2.1220   -1.3270 ca        1 MOL      0.018500
     10 C10        -2.2070    1.4000   -1.7700 ca        1 MOL      0.027800
     11 C11        -2.3330    0.0490   -1.4470 ca        1 MOL      0.018800
     12 C12        -1.3520   -0.5800   -0.6810 ca        1 MOL      0.040100
     13 Cl1        -1.4920   -2.2650   -0.2630 cl        1 MOL     -0.041300
     14 Cl2        -3.7170   -0.8550   -1.9990 cl        1 MOL     -0.035200
     15 Cl3        -3.4230    2.1990   -2.7250 cl        1 MOL     -0.033200
     16 Cl4        -0.8690    3.7990   -1.6880 cl        1 MOL     -0.051100
     17 Cl5        -0.5910    0.2370    2.7780 cl        1 MOL     -0.046700
     18 Cl6         1.7570   -1.1110    4.4150 cl        1 MOL     -0.039400
     19 Cl7         4.2000   -2.4080    2.8250 cl        1 MOL     -0.055500
     20 H1          1.9360   -1.0290   -1.1990 ha        1 MOL      0.154800
     21 H2          3.7540   -2.0730    0.0660 ha        1 MOL      0.158200
     22 H3          0.7490    2.0560   -0.2170 ha        1 MOL      0.166000
@<TRIPOS>BOND
     1    1    6 ar  
     2    1    2 ar  
     3    2    3 ar  
     4    3    4 ar  
     5    4    5 ar  
     6    5    6 ar  
     7    6    7 1   
     8    7   12 ar  
     9    7    8 ar  
    10    8    9 ar  
    11    9   10 ar  
    12   10   11 ar  
    13   11   12 ar  
    14   12   13 1   
    15   11   14 1   
    16   10   15 1   
    17    9   16 1   
    18    5   17 1   
    19    4   18 1   
    20    3   19 1   
    21    1   20 1   
    22    2   21 1   
    23    8   22 1   
@<TRIPOS>SUBSTRUCTURE
     1 MOL         1 TEMP              0 ****  ****    0 ROOT
