@<TRIPOS>MOLECULE
2-methylpropanal
   13    12     1     0     0
SMALL
No Charge or Current Charge


@<TRIPOS>ATOM
      1 C1         -0.4390   -0.8920    0.4600 c3        1 MOL     -0.086400
      2 C2         -1.9420   -0.7230    0.6490 c3        1 MOL     -0.183300
      3 C3         -2.5620   -1.9750    1.2570 c3        1 MOL     -0.086400
      4 C4         -2.1990    0.5040    1.5020 c         1 MOL      0.565600
      5 O1         -2.7800    0.4930    2.5830 o         1 MOL     -0.522000
      6 H1          0.0040    0.0090    0.0220 hc        1 MOL      0.042600
      7 H2         -0.2210   -1.7330   -0.2060 hc        1 MOL      0.042600
      8 H3          0.0630   -1.0730    1.4170 hc        1 MOL      0.042600
      9 H4         -2.4060   -0.5330   -0.3260 hc        1 MOL      0.067600
     10 H5         -3.6420   -1.8500    1.3920 hc        1 MOL      0.042600
     11 H6         -2.1240   -2.1900    2.2380 hc        1 MOL      0.042600
     12 H7         -2.3970   -2.8520    0.6220 hc        1 MOL      0.042600
     13 H8         -1.8590    1.4600    1.0660 h4        1 MOL     -0.010500
@<TRIPOS>BOND
     1    1    2 1   
     2    2    3 1   
     3    2    4 1   
     4    4    5 2   
     5    1    6 1   
     6    1    7 1   
     7    1    8 1   
     8    2    9 1   
     9    3   10 1   
    10    3   11 1   
    11    3   12 1   
    12    4   13 1   
@<TRIPOS>SUBSTRUCTURE
     1 MOL         1 TEMP              0 ****  ****    0 ROOT
