@<TRIPOS>MOLECULE
methyl
   19    19     1     0     0
SMALL
No Charge or Current Charge


@<TRIPOS>ATOM
      1 C1          0.5840   -1.0130   -3.5060 c3        1 MOL      0.126200
      2 O1          0.6720   -1.0310   -2.0780 os        1 MOL     -0.440100
      3 C2          1.9290   -1.0140   -1.5660 c         1 MOL      0.650600
      4 O2          2.9700   -0.9850   -2.2040 o         1 MOL     -0.539100
      5 C3          1.8850   -1.0360   -0.1120 ca        1 MOL     -0.170400
      6 C4          2.9210   -1.6310    0.6080 ca        1 MOL     -0.036200
      7 C5          2.8780   -1.6520    2.0020 ca        1 MOL     -0.202000
      8 C6          1.8000   -1.0790    2.6760 ca        1 MOL      0.155900
      9 C7          0.7640   -0.4840    1.9550 ca        1 MOL     -0.202000
     10 C8          0.8070   -0.4630    0.5610 ca        1 MOL     -0.036200
     11 O3          1.7570   -1.0990    4.0360 oh        1 MOL     -0.491100
     12 H1         -0.4660   -1.0290   -3.8070 h1        1 MOL      0.049900
     13 H2          1.1050   -1.8820   -3.9160 h1        1 MOL      0.049900
     14 H3          1.0540   -0.1000   -3.8800 h1        1 MOL      0.049900
     15 H4          3.7660   -2.0810    0.0940 ha        1 MOL      0.155600
     16 H5          3.6890   -2.1160    2.5580 ha        1 MOL      0.149500
     17 H6         -0.0790   -0.0360    2.4740 ha        1 MOL      0.149500
     18 H7         -0.0050    0.0040    0.0090 ha        1 MOL      0.155600
     19 H8          2.5430   -1.5440    4.3910 ho        1 MOL      0.424300
@<TRIPOS>BOND
     1    1    2 1   
     2    2    3 1   
     3    3    4 2   
     4    3    5 1   
     5    5   10 ar  
     6    5    6 ar  
     7    6    7 ar  
     8    7    8 ar  
     9    8    9 ar  
    10    9   10 ar  
    11    8   11 1   
    12    1   12 1   
    13    1   13 1   
    14    1   14 1   
    15    6   15 1   
    16    7   16 1   
    17    9   17 1   
    18   10   18 1   
    19   11   19 1   
@<TRIPOS>SUBSTRUCTURE
     1 MOL         1 TEMP              0 ****  ****    0 ROOT
