@<TRIPOS>MOLECULE
2-methylaniline
   17    17     1     0     0
SMALL
No Charge or Current Charge


@<TRIPOS>ATOM
      1 C1          1.9560   -1.0270   -1.6050 c3        1 MOL     -0.049900
      2 C2          1.8850   -1.0360   -0.1120 ca        1 MOL     -0.136800
      3 C3          2.9210   -1.6310    0.6080 ca        1 MOL     -0.093500
      4 C4          2.8780   -1.6520    2.0020 ca        1 MOL     -0.170200
      5 C5          1.8000   -1.0790    2.6760 ca        1 MOL     -0.096500
      6 C6          0.7640   -0.4840    1.9550 ca        1 MOL     -0.190400
      7 C7          0.8070   -0.4630    0.5610 ca        1 MOL      0.141800
      8 N1         -0.2510    0.1430   -0.1520 nh        1 MOL     -0.823300
      9 H1          2.4710   -0.1250   -1.9500 hc        1 MOL      0.041000
     10 H2          2.4950   -1.9060   -1.9760 hc        1 MOL      0.041000
     11 H3          0.9540   -1.0530   -2.0440 hc        1 MOL      0.041000
     12 H4          3.7650   -2.0810    0.0930 ha        1 MOL      0.128800
     13 H5          3.6850   -2.1150    2.5630 ha        1 MOL      0.130200
     14 H6          1.7660   -1.0950    3.7610 ha        1 MOL      0.128400
     15 H7         -0.0710   -0.0400    2.4910 ha        1 MOL      0.129200
     16 H8         -0.1960    0.1990   -1.1480 hn        1 MOL      0.389600
     17 H9         -0.9880    0.5880    0.3560 hn        1 MOL      0.389600
@<TRIPOS>BOND
     1    1    2 1   
     2    2    7 ar  
     3    2    3 ar  
     4    3    4 ar  
     5    4    5 ar  
     6    5    6 ar  
     7    6    7 ar  
     8    7    8 1   
     9    1    9 1   
    10    1   10 1   
    11    1   11 1   
    12    3   12 1   
    13    4   13 1   
    14    5   14 1   
    15    6   15 1   
    16    8   16 1   
    17    8   17 1   
@<TRIPOS>SUBSTRUCTURE
     1 MOL         1 TEMP              0 ****  ****    0 ROOT
