@<TRIPOS>MOLECULE
isobutane
   14    13     1     0     0
SMALL
No Charge or Current Charge


@<TRIPOS>ATOM
      1 C1          0.6620   -0.3790   -0.7850 c3        1 MOL     -0.089600
      2 C2          0.1010   -0.0600   -2.1690 c3        1 MOL     -0.070500
      3 C3         -0.0690    1.4480   -2.3440 c3        1 MOL     -0.089600
      4 C4          1.0050   -0.6290   -3.2600 c3        1 MOL     -0.089600
      5 H1          0.7890   -1.4580   -0.6460 hc        1 MOL      0.032800
      6 H2          1.6380    0.0970   -0.6420 hc        1 MOL      0.032800
      7 H3         -0.0070   -0.0130    0.0000 hc        1 MOL      0.032800
      8 H4         -0.8860   -0.5310   -2.2580 hc        1 MOL      0.044300
      9 H5         -0.4720    1.6910   -3.3340 hc        1 MOL      0.032800
     10 H6          0.8910    1.9620   -2.2340 hc        1 MOL      0.032800
     11 H7         -0.7540    1.8520   -1.5910 hc        1 MOL      0.032800
     12 H8          0.6130   -0.4060   -4.2580 hc        1 MOL      0.032800
     13 H9          1.0920   -1.7160   -3.1640 hc        1 MOL      0.032800
     14 H10         2.0130   -0.2050   -3.1890 hc        1 MOL      0.032800
@<TRIPOS>BOND
     1    1    2 1   
     2    2    3 1   
     3    2    4 1   
     4    1    5 1   
     5    1    6 1   
     6    1    7 1   
     7    2    8 1   
     8    3    9 1   
     9    3   10 1   
    10    3   11 1   
    11    4   12 1   
    12    4   13 1   
    13    4   14 1   
@<TRIPOS>SUBSTRUCTURE
     1 MOL         1 TEMP              0 ****  ****    0 ROOT
