@<TRIPOS>MOLECULE
2-methylbutane
   17    16     1     0     0
SMALL
No Charge or Current Charge


@<TRIPOS>ATOM
      1 C1         -0.2300   -0.8990   -0.6920 c3        1 MOL     -0.091900
      2 C2          0.4310   -0.6230   -2.0340 c3        1 MOL     -0.076100
      3 C3          1.9540   -0.4230   -1.9410 c3        1 MOL     -0.066500
      4 C4          2.6690   -1.6480   -1.3710 c3        1 MOL     -0.089900
      5 C5          2.5200   -0.0900   -3.3240 c3        1 MOL     -0.089900
      6 H1         -1.3090   -1.0320   -0.8260 hc        1 MOL      0.032700
      7 H2         -0.0750   -0.0670    0.0020 hc        1 MOL      0.032700
      8 H3          0.1590   -1.8120   -0.2320 hc        1 MOL      0.032700
      9 H4          0.2000   -1.4440   -2.7230 hc        1 MOL      0.037400
     10 H5         -0.0240    0.2810   -2.4590 hc        1 MOL      0.037400
     11 H6          2.1570    0.4300   -1.2810 hc        1 MOL      0.044500
     12 H7          3.7500   -1.4860   -1.3120 hc        1 MOL      0.032800
     13 H8          2.4900   -2.5360   -1.9850 hc        1 MOL      0.032800
     14 H9          2.3060   -1.8750   -0.3620 hc        1 MOL      0.032800
     15 H10         3.6050    0.0570   -3.2840 hc        1 MOL      0.032800
     16 H11         2.0680    0.8250   -3.7200 hc        1 MOL      0.032800
     17 H12         2.3130   -0.8980   -4.0340 hc        1 MOL      0.032800
@<TRIPOS>BOND
     1    1    2 1   
     2    2    3 1   
     3    3    4 1   
     4    3    5 1   
     5    1    6 1   
     6    1    7 1   
     7    1    8 1   
     8    2    9 1   
     9    2   10 1   
    10    3   11 1   
    11    4   12 1   
    12    4   13 1   
    13    4   14 1   
    14    5   15 1   
    15    5   16 1   
    16    5   17 1   
@<TRIPOS>SUBSTRUCTURE
     1 MOL         1 TEMP              0 ****  ****    0 ROOT
