@<TRIPOS>MOLECULE
2-methylpropan-1-ol
   15    14     1     0     0
SMALL
No Charge or Current Charge


@<TRIPOS>ATOM
      1 C1          0.9980   -0.3580   -0.2740 c3        1 MOL     -0.090100
      2 C2          1.8180    0.7470   -0.9440 c3        1 MOL     -0.070500
      3 C3          1.1580    1.1800   -2.2510 c3        1 MOL     -0.090100
      4 C4          1.9990    1.9490   -0.0130 c3        1 MOL      0.134300
      5 O1          2.6750    1.5480    1.1710 oh        1 MOL     -0.601100
      6 H1          1.4670   -0.6730    0.6640 hc        1 MOL      0.036500
      7 H2          0.9140   -1.2370   -0.9220 hc        1 MOL      0.036500
      8 H3         -0.0130   -0.0120   -0.0380 hc        1 MOL      0.036500
      9 H4          2.8080    0.3290   -1.1710 hc        1 MOL      0.059700
     10 H5          1.7380    1.9710   -2.7370 hc        1 MOL      0.036500
     11 H6          0.1510    1.5700   -2.0670 hc        1 MOL      0.036500
     12 H7          1.0740    0.3420   -2.9520 hc        1 MOL      0.036500
     13 H8          2.6000    2.7250   -0.4990 h1        1 MOL      0.020400
     14 H9          1.0320    2.3810    0.2670 h1        1 MOL      0.020400
     15 H10         2.7650    2.3400    1.7240 ho        1 MOL      0.398000
@<TRIPOS>BOND
     1    1    2 1   
     2    2    3 1   
     3    2    4 1   
     4    4    5 1   
     5    1    6 1   
     6    1    7 1   
     7    1    8 1   
     8    2    9 1   
     9    3   10 1   
    10    3   11 1   
    11    3   12 1   
    12    4   13 1   
    13    4   14 1   
    14    5   15 1   
@<TRIPOS>SUBSTRUCTURE
     1 MOL         1 TEMP              0 ****  ****    0 ROOT
