@<TRIPOS>MOLECULE
decan-1-ol
   33    32     1     0     0
SMALL
No Charge or Current Charge


@<TRIPOS>ATOM
      1 C1         -2.6220    2.3830    0.2540 c3        1 MOL     -0.091900
      2 C2         -3.1470    2.2050   -1.1620 c3        1 MOL     -0.079600
      3 C3         -3.2480    0.7270   -1.5390 c3        1 MOL     -0.078700
      4 C4         -3.7780    0.5510   -2.9650 c3        1 MOL     -0.077700
      5 C5         -3.8780   -0.9290   -3.3390 c3        1 MOL     -0.078100
      6 C6         -4.4030   -1.1640   -4.7580 c3        1 MOL     -0.078000
      7 C7         -4.5030   -2.6440   -5.1330 c3        1 MOL     -0.077900
      8 C8         -5.0330   -2.8200   -6.5580 c3        1 MOL     -0.077700
      9 C9         -5.1340   -4.3010   -6.9350 c3        1 MOL     -0.084200
     10 C10        -5.6590   -4.5020   -8.3510 c3        1 MOL      0.132000
     11 O1         -5.7330   -5.8880   -8.6490 oh        1 MOL     -0.601100
     12 H1         -2.5520    3.4440    0.5150 hc        1 MOL      0.033000
     13 H2         -1.6280    1.9360    0.3630 hc        1 MOL      0.033000
     14 H3         -3.2920    1.9000    0.9710 hc        1 MOL      0.033000
     15 H4         -4.1330    2.6780   -1.2420 hc        1 MOL      0.037800
     16 H5         -2.4800    2.7230   -1.8610 hc        1 MOL      0.037800
     17 H6         -2.2610    0.2570   -1.4540 hc        1 MOL      0.038600
     18 H7         -3.9130    0.2140   -0.8340 hc        1 MOL      0.038600
     19 H8         -3.1100    1.0710   -3.6610 hc        1 MOL      0.038400
     20 H9         -4.7660    1.0200   -3.0490 hc        1 MOL      0.038400
     21 H10        -2.8970   -1.4070   -3.2260 hc        1 MOL      0.039500
     22 H11        -4.5560   -1.4300   -2.6370 hc        1 MOL      0.039500
     23 H12        -3.7620   -0.6420   -5.4790 hc        1 MOL      0.039000
     24 H13        -5.3980   -0.7080   -4.8330 hc        1 MOL      0.039000
     25 H14        -5.1690   -3.1580   -4.4280 hc        1 MOL      0.041100
     26 H15        -3.5190   -3.1190   -5.0560 hc        1 MOL      0.041100
     27 H16        -4.3660   -2.3080   -7.2630 hc        1 MOL      0.038800
     28 H17        -6.0180   -2.3460   -6.6420 hc        1 MOL      0.038800
     29 H18        -4.1470   -4.7720   -6.8490 hc        1 MOL      0.055200
     30 H19        -5.8040   -4.8020   -6.2260 hc        1 MOL      0.055200
     31 H20        -4.9820   -4.0310   -9.0710 h1        1 MOL      0.019400
     32 H21        -6.6550   -4.0620   -8.4660 h1        1 MOL      0.019400
     33 H22        -6.0710   -5.9630   -9.5560 ho        1 MOL      0.398500
@<TRIPOS>BOND
     1    1    2 1   
     2    2    3 1   
     3    3    4 1   
     4    4    5 1   
     5    5    6 1   
     6    6    7 1   
     7    7    8 1   
     8    8    9 1   
     9    9   10 1   
    10   10   11 1   
    11    1   12 1   
    12    1   13 1   
    13    1   14 1   
    14    2   15 1   
    15    2   16 1   
    16    3   17 1   
    17    3   18 1   
    18    4   19 1   
    19    4   20 1   
    20    5   21 1   
    21    5   22 1   
    22    6   23 1   
    23    6   24 1   
    24    7   25 1   
    25    7   26 1   
    26    8   27 1   
    27    8   28 1   
    28    9   29 1   
    29    9   30 1   
    30   10   31 1   
    31   10   32 1   
    32   11   33 1   
@<TRIPOS>SUBSTRUCTURE
     1 MOL         1 TEMP              0 ****  ****    0 ROOT
