@<TRIPOS>MOLECULE
3-nitrooxypropyl
   17    16     1     0     0
SMALL
No Charge or Current Charge


@<TRIPOS>ATOM
      1 C1          0.7770   -0.0130   -0.7750 c3        1 MOL     -0.088200
      2 C2          0.3980    0.9310   -1.9040 c3        1 MOL      0.125600
      3 O1          0.2090    2.2340   -1.3690 os        1 MOL     -0.342200
      4 N1         -0.1520    3.2040   -2.3470 no        1 MOL      0.376600
      5 O2         -0.2580    2.8240   -3.5150 o         1 MOL     -0.172000
      6 O3         -0.3120    4.3280   -1.8700 o         1 MOL     -0.172000
      7 C3          0.9970   -1.4330   -1.2700 c3        1 MOL      0.125600
      8 O4          1.3480   -2.2750   -0.1800 os        1 MOL     -0.342200
      9 N2          1.5730   -3.6290   -0.5560 no        1 MOL      0.376600
     10 O5          1.4440   -3.9190   -1.7480 o         1 MOL     -0.172000
     11 O6          1.8770   -4.3460    0.3970 o         1 MOL     -0.172000
     12 H1          1.6790    0.3510   -0.2670 hc        1 MOL      0.085900
     13 H2          0.0000    0.0000    0.0000 hc        1 MOL      0.085900
     14 H3          1.1900    0.9760   -2.6590 h1        1 MOL      0.071100
     15 H4         -0.5340    0.6130   -2.3830 h1        1 MOL      0.071100
     16 H5          1.8120   -1.4700   -2.0000 h1        1 MOL      0.071100
     17 H6          0.0950   -1.8360   -1.7420 h1        1 MOL      0.071100
@<TRIPOS>BOND
     1    1    2 1   
     2    2    3 1   
     3    3    4 1   
     4    4    5 1   
     5    4    6 1   
     6    1    7 1   
     7    7    8 1   
     8    8    9 1   
     9    9   10 1   
    10    9   11 1   
    11    1   12 1   
    12    1   13 1   
    13    2   14 1   
    14    2   15 1   
    15    7   16 1   
    16    7   17 1   
@<TRIPOS>SUBSTRUCTURE
     1 MOL         1 TEMP              0 ****  ****    0 ROOT
