@<TRIPOS>MOLECULE
1,3-bis(trifluoromethyl)benzene
   18    18     1     0     0
SMALL
No Charge or Current Charge


@<TRIPOS>ATOM
      1 C1          1.8850   -1.0360   -0.1120 ca        1 MOL     -0.138000
      2 C2          2.9210   -1.6310    0.6080 ca        1 MOL     -0.053300
      3 C3          2.8780   -1.6520    2.0020 ca        1 MOL     -0.174200
      4 C4          1.8000   -1.0790    2.6760 ca        1 MOL     -0.035300
      5 C5          0.7640   -0.4840    1.9550 ca        1 MOL     -0.174200
      6 C6          0.8070   -0.4630    0.5610 ca        1 MOL     -0.053300
      7 C7         -0.3910    0.1280    2.6740 c3        1 MOL      0.689600
      8 F1         -0.3010    0.0330    4.0340 f         1 MOL     -0.232200
      9 F2         -0.5490    1.4600    2.4200 f         1 MOL     -0.232200
     10 F3         -1.5810   -0.4520    2.3450 f         1 MOL     -0.232200
     11 C8          3.9860   -2.2870    2.7730 c3        1 MOL      0.689600
     12 F4          4.9740   -2.8060    1.9840 f         1 MOL     -0.232200
     13 F5          4.6230   -1.4290    3.6230 f         1 MOL     -0.232200
     14 F6          3.5580   -3.3230    3.5520 f         1 MOL     -0.232200
     15 H1          1.9180   -1.0200   -1.1980 ha        1 MOL      0.153400
     16 H2          3.7580   -2.0740    0.0750 ha        1 MOL      0.159300
     17 H3          1.7660   -1.0960    3.7630 ha        1 MOL      0.170500
     18 H4          0.0040   -0.0030   -0.0090 ha        1 MOL      0.159300
@<TRIPOS>BOND
     1    1    6 ar  
     2    1    2 ar  
     3    2    3 ar  
     4    3    4 ar  
     5    4    5 ar  
     6    5    6 ar  
     7    5    7 1   
     8    7    8 1   
     9    7    9 1   
    10    7   10 1   
    11    3   11 1   
    12   11   12 1   
    13   11   13 1   
    14   11   14 1   
    15    1   15 1   
    16    2   16 1   
    17    4   17 1   
    18    6   18 1   
@<TRIPOS>SUBSTRUCTURE
     1 MOL         1 TEMP              0 ****  ****    0 ROOT
