@<TRIPOS>MOLECULE
2-methoxyaniline
   18    18     1     0     0
SMALL
No Charge or Current Charge


@<TRIPOS>ATOM
      1 C1          1.3610   -2.1340   -2.1490 c3        1 MOL      0.116000
      2 O1          1.9460   -1.0260   -1.4740 os        1 MOL     -0.352700
      3 C2          1.8850   -1.0360   -0.1120 ca        1 MOL      0.026100
      4 C3          2.9210   -1.6310    0.6080 ca        1 MOL     -0.102700
      5 C4          2.8780   -1.6520    2.0020 ca        1 MOL     -0.164300
      6 C5          1.8000   -1.0790    2.6760 ca        1 MOL     -0.098300
      7 C6          0.7640   -0.4840    1.9550 ca        1 MOL     -0.186200
      8 C7          0.8070   -0.4630    0.5610 ca        1 MOL      0.129000
      9 N1         -0.2490    0.1420   -0.1560 nh        1 MOL     -0.812900
     10 H1          1.4760   -2.0050   -3.2280 h1        1 MOL      0.040000
     11 H2          0.3010   -2.2010   -1.8900 h1        1 MOL      0.040000
     12 H3          1.8690   -3.0490   -1.8380 h1        1 MOL      0.040000
     13 H4          3.7640   -2.0790    0.0900 ha        1 MOL      0.141800
     14 H5          3.6850   -2.1140    2.5630 ha        1 MOL      0.133900
     15 H6          1.7670   -1.0950    3.7610 ha        1 MOL      0.130600
     16 H7         -0.0720   -0.0400    2.4910 ha        1 MOL      0.132500
     17 H8         -0.1920    0.1970   -1.1520 hn        1 MOL      0.393600
     18 H9         -0.9870    0.5870    0.3500 hn        1 MOL      0.393600
@<TRIPOS>BOND
     1    1    2 1   
     2    2    3 1   
     3    3    8 ar  
     4    3    4 ar  
     5    4    5 ar  
     6    5    6 ar  
     7    6    7 ar  
     8    7    8 ar  
     9    8    9 1   
    10    1   10 1   
    11    1   11 1   
    12    1   12 1   
    13    4   13 1   
    14    5   14 1   
    15    6   15 1   
    16    7   16 1   
    17    9   17 1   
    18    9   18 1   
@<TRIPOS>SUBSTRUCTURE
     1 MOL         1 TEMP              0 ****  ****    0 ROOT
