@<TRIPOS>MOLECULE
1,4-diaminoanthracene-9,10-dione
   28    30     1     0     0
SMALL
No Charge or Current Charge


@<TRIPOS>ATOM
      1 C1          1.2900   -1.6870   -0.3520 ca        1 MOL     -0.120600
      2 C2          0.9560   -0.4630    0.2260 ca        1 MOL     -0.120500
      3 C3          1.8480    0.1680    1.0930 ca        1 MOL     -0.087500
      4 C4          3.0810   -0.4280    1.3840 ca        1 MOL     -0.126100
      5 C5          3.4160   -1.6540    0.8060 ca        1 MOL     -0.126100
      6 C6          2.5180   -2.2840   -0.0640 ca        1 MOL     -0.087500
      7 C7          4.7130   -2.2940    1.1040 c         1 MOL      0.599300
      8 O1          4.9710   -3.3690    0.5790 o         1 MOL     -0.574100
      9 C8          5.6520   -1.6180    2.0240 ca        1 MOL     -0.177100
     10 C9          6.8850   -2.2140    2.3150 ca        1 MOL      0.185700
     11 C10         7.7770   -1.5830    3.1820 ca        1 MOL     -0.142900
     12 C11         7.4420   -0.3590    3.7590 ca        1 MOL     -0.142900
     13 C12         6.2150    0.2380    3.4720 ca        1 MOL      0.185700
     14 C13         5.3170   -0.3920    2.6020 ca        1 MOL     -0.177100
     15 C14         4.0190    0.2480    2.3040 c         1 MOL      0.599300
     16 O2          3.6910    1.3220    2.7930 o         1 MOL     -0.574100
     17 N1          5.9470    1.4790    4.0940 nh        1 MOL     -0.838800
     18 N2          7.2940   -3.4520    1.7680 nh        1 MOL     -0.838800
     19 H1          0.5940   -2.1760   -1.0260 ha        1 MOL      0.138700
     20 H2          0.0010    0.0010   -0.0010 ha        1 MOL      0.138700
     21 H3          1.5620    1.1220    1.5290 ha        1 MOL      0.160400
     22 H4          2.7510   -3.2380   -0.5280 ha        1 MOL      0.160400
     23 H5          8.7380   -2.0340    3.4170 ha        1 MOL      0.138100
     24 H6          8.1490    0.1200    4.4330 ha        1 MOL      0.138100
     25 H7          6.6120    1.8510    4.7400 hn        1 MOL      0.422500
     26 H8          5.0590    1.9120    3.9480 hn        1 MOL      0.422500
     27 H9          6.6620   -3.9540    1.1800 hn        1 MOL      0.422500
     28 H10         8.1660   -3.8430    2.0540 hn        1 MOL      0.422500
@<TRIPOS>BOND
     1    1    6 ar  
     2    1    2 ar  
     3    2    3 ar  
     4    3    4 ar  
     5    4   15 1   
     6    4    5 ar  
     7    5    6 ar  
     8    5    7 1   
     9    7    8 2   
    10    7    9 1   
    11    9   14 ar  
    12    9   10 ar  
    13   10   11 ar  
    14   11   12 ar  
    15   12   13 ar  
    16   13   14 ar  
    17   14   15 1   
    18   15   16 2   
    19   13   17 1   
    20   10   18 1   
    21    1   19 1   
    22    2   20 1   
    23    3   21 1   
    24    6   22 1   
    25   11   23 1   
    26   12   24 1   
    27   17   25 1   
    28   17   26 1   
    29   18   27 1   
    30   18   28 1   
@<TRIPOS>SUBSTRUCTURE
     1 MOL         1 TEMP              0 ****  ****    0 ROOT
