@<TRIPOS>MOLECULE
benzonitrile
   13    13     1     0     0
SMALL
No Charge or Current Charge


@<TRIPOS>ATOM
      1 C1          1.8850   -1.0360   -0.1120 ca        1 MOL     -0.106800
      2 C2          2.9210   -1.6310    0.6080 ca        1 MOL     -0.135300
      3 C3          2.8780   -1.6520    2.0020 ca        1 MOL     -0.090800
      4 C4          1.8000   -1.0790    2.6760 ca        1 MOL     -0.018700
      5 C5          0.7640   -0.4840    1.9550 ca        1 MOL     -0.090800
      6 C6          0.8070   -0.4630    0.5610 ca        1 MOL     -0.135300
      7 C7          1.7560   -1.1010    4.1040 cg        1 MOL      0.233900
      8 N1          1.7200   -1.1180    5.2650 n1        1 MOL     -0.363800
      9 H1          1.9170   -1.0210   -1.1980 ha        1 MOL      0.137900
     10 H2          3.7610   -2.0780    0.0840 ha        1 MOL      0.140000
     11 H3          3.6930   -2.1190    2.5500 ha        1 MOL      0.144800
     12 H4         -0.0840   -0.0330    2.4660 ha        1 MOL      0.144800
     13 H5         -0.0010   -0.0010    0.0000 ha        1 MOL      0.140000
@<TRIPOS>BOND
     1    1    6 ar  
     2    1    2 ar  
     3    2    3 ar  
     4    3    4 ar  
     5    4    5 ar  
     6    5    6 ar  
     7    4    7 1   
     8    7    8 3   
     9    1    9 1   
    10    2   10 1   
    11    3   11 1   
    12    5   12 1   
    13    6   13 1   
@<TRIPOS>SUBSTRUCTURE
     1 MOL         1 TEMP              0 ****  ****    0 ROOT
