@<TRIPOS>MOLECULE
butane
   14    13     1     0     0
SMALL
No Charge or Current Charge


@<TRIPOS>ATOM
      1 C1          0.4050   -0.7300    0.7080 c3        1 MOL     -0.092100
      2 C2          1.6370   -0.1820    1.4100 c3        1 MOL     -0.080400
      3 C3          1.3160    1.0890    2.1950 c3        1 MOL     -0.080400
      4 C4          2.5480    1.6360    2.8960 c3        1 MOL     -0.092100
      5 H1          0.6440   -1.6400    0.1490 hc        1 MOL      0.032400
      6 H2         -0.3840   -0.9670    1.4290 hc        1 MOL      0.032400
      7 H3          0.0100    0.0090    0.0030 hc        1 MOL      0.032400
      8 H4          2.0360   -0.9470    2.0870 hc        1 MOL      0.037700
      9 H5          2.4130    0.0270    0.6640 hc        1 MOL      0.037700
     10 H6          0.9180    1.8540    1.5180 hc        1 MOL      0.037700
     11 H7          0.5400    0.8800    2.9400 hc        1 MOL      0.037700
     12 H8          2.3090    2.5460    3.4560 hc        1 MOL      0.032400
     13 H9          3.3240    1.8810    2.1640 hc        1 MOL      0.032400
     14 H10         2.9610    0.9020    3.5950 hc        1 MOL      0.032400
@<TRIPOS>BOND
     1    1    2 1   
     2    2    3 1   
     3    3    4 1   
     4    1    5 1   
     5    1    6 1   
     6    1    7 1   
     7    2    8 1   
     8    2    9 1   
     9    3   10 1   
    10    3   11 1   
    11    4   12 1   
    12    4   13 1   
    13    4   14 1   
@<TRIPOS>SUBSTRUCTURE
     1 MOL         1 TEMP              0 ****  ****    0 ROOT
