@<TRIPOS>MOLECULE
dichloromethane
    5     4     1     0     0
SMALL
No Charge or Current Charge


@<TRIPOS>ATOM
      1 C1          0.1400   -0.0330    0.0340 c3        1 MOL      0.122800
      2 Cl1        -0.5440   -0.1480   -1.5910 cl        1 MOL     -0.151400
      3 Cl2        -1.0670    0.5280    1.1960 cl        1 MOL     -0.151400
      4 H1          0.9750    0.6720    0.0200 h2        1 MOL      0.090000
      5 H2          0.4970   -1.0190    0.3410 h2        1 MOL      0.090000
@<TRIPOS>BOND
     1    1    2 1   
     2    1    3 1   
     3    1    4 1   
     4    1    5 1   
@<TRIPOS>SUBSTRUCTURE
     1 MOL         1 TEMP              0 ****  ****    0 ROOT
