@<TRIPOS>MOLECULE
N2-ethyl-N4-isopropyl-6-methylsulfanyl-1,3,5-triazine-2,4-diamine
   32    32     1     0     0
SMALL
No Charge or Current Charge


@<TRIPOS>ATOM
      1 C1         -1.5390   -1.5580   -4.8540 c3        1 MOL     -0.129200
      2 C2         -0.3280   -2.1380   -4.2060 c3        1 MOL      0.198600
      3 N1         -0.1520   -1.6180   -2.8710 nh        1 MOL     -0.816600
      4 C3          0.9110   -1.9890   -2.0190 ca        1 MOL      0.904400
      5 N2          0.9400   -1.4170   -0.8050 nb        1 MOL     -0.822200
      6 C4          1.9760   -1.8180   -0.0510 ca        1 MOL      0.917300
      7 N3          2.9300   -2.6960   -0.4020 nb        1 MOL     -0.776400
      8 C5          2.7730   -3.1850   -1.6430 ca        1 MOL      0.798000
      9 N4          1.7920   -2.8790   -2.5070 nb        1 MOL     -0.806700
     10 S1          3.9910   -4.3590   -2.2000 ss        1 MOL     -0.248500
     11 C6          5.4230   -3.7750   -1.2680 c3        1 MOL     -0.064600
     12 N5          2.0720   -1.2700    1.2180 nh        1 MOL     -0.844200
     13 C7          3.1530   -1.6020    2.1780 c3        1 MOL      0.231400
     14 C8          2.6160   -1.4730    3.5960 c3        1 MOL     -0.116600
     15 C9          4.3320   -0.6700    1.9350 c3        1 MOL     -0.116600
     16 H1         -1.6690   -1.9550   -5.8660 hc        1 MOL      0.045300
     17 H2         -2.4370   -1.7710   -4.2640 hc        1 MOL      0.045300
     18 H3         -1.4340   -0.4690   -4.9300 hc        1 MOL      0.045300
     19 H4          0.5690   -1.8930   -4.7820 h1        1 MOL      0.060100
     20 H5         -0.4130   -3.2260   -4.1310 h1        1 MOL      0.060100
     21 H6         -0.8290   -0.9460   -2.5270 hn        1 MOL      0.423300
     22 H7          6.2900   -4.3990   -1.4930 h1        1 MOL      0.073000
     23 H8          5.2130   -3.8280   -0.1970 h1        1 MOL      0.073000
     24 H9          5.6440   -2.7410   -1.5400 h1        1 MOL      0.073000
     25 H10         1.3640   -0.6050    1.5070 hn        1 MOL      0.439800
     26 H11         3.4620   -2.6360    1.9950 h1        1 MOL      0.073500
     27 H12         3.3930   -1.7120    4.3300 hc        1 MOL      0.046700
     28 H13         2.2580   -0.4570    3.7970 hc        1 MOL      0.046700
     29 H14         1.7750   -2.1560    3.7570 hc        1 MOL      0.046700
     30 H15         5.1490   -0.8890    2.6300 hc        1 MOL      0.046700
     31 H16         4.0380    0.3750    2.0760 hc        1 MOL      0.046700
     32 H17         4.7260   -0.7800    0.9180 hc        1 MOL      0.046700
@<TRIPOS>BOND
     1    1    2 1   
     2    2    3 1   
     3    3    4 1   
     4    4    9 ar  
     5    4    5 ar  
     6    5    6 ar  
     7    6    7 ar  
     8    7    8 ar  
     9    8    9 ar  
    10    8   10 1   
    11   10   11 1   
    12    6   12 1   
    13   12   13 1   
    14   13   14 1   
    15   13   15 1   
    16    1   16 1   
    17    1   17 1   
    18    1   18 1   
    19    2   19 1   
    20    2   20 1   
    21    3   21 1   
    22   11   22 1   
    23   11   23 1   
    24   11   24 1   
    25   12   25 1   
    26   13   26 1   
    27   14   27 1   
    28   14   28 1   
    29   14   29 1   
    30   15   30 1   
    31   15   31 1   
    32   15   32 1   
@<TRIPOS>SUBSTRUCTURE
     1 MOL         1 TEMP              0 ****  ****    0 ROOT
