@<TRIPOS>MOLECULE
2-chloro-1,1,1-trimethoxy-ethane
   20    19     1     0     0
SMALL
No Charge or Current Charge


@<TRIPOS>ATOM
      1 C1          0.0110    0.9020   -2.2280 c3        1 MOL      0.130300
      2 O1          0.7430    0.9070   -1.0110 os        1 MOL     -0.439700
      3 C2          0.2960   -0.0350   -0.0110 c3        1 MOL      0.521500
      4 C3          0.8470   -1.4410   -0.3400 c3        1 MOL      0.006800
      5 Cl1         2.5310   -1.3870   -0.9310 cl        1 MOL     -0.144400
      6 O2          0.8640    0.3170    1.2720 os        1 MOL     -0.439700
      7 C4          0.4990    1.6160    1.7230 c3        1 MOL      0.130300
      8 O3         -1.1450   -0.0520    0.0430 os        1 MOL     -0.439700
      9 C5         -1.7230   -0.9400    0.9890 c3        1 MOL      0.130300
     10 H1          0.4300    1.6470   -2.9090 h1        1 MOL      0.042500
     11 H2         -1.0390    1.1280   -2.0250 h1        1 MOL      0.042500
     12 H3          0.0870   -0.0880   -2.6850 h1        1 MOL      0.042500
     13 H4          0.2440   -1.9460   -1.1010 h1        1 MOL      0.080800
     14 H5          0.8610   -2.0790    0.5490 h1        1 MOL      0.080800
     15 H6          0.9650    1.8040    2.6910 h1        1 MOL      0.042500
     16 H7         -0.5870    1.6750    1.8060 h1        1 MOL      0.042500
     17 H8          0.8520    2.3490    0.9970 h1        1 MOL      0.042500
     18 H9         -2.8100   -0.8640    0.9370 h1        1 MOL      0.042500
     19 H10        -1.3720   -0.6790    1.9890 h1        1 MOL      0.042500
     20 H11        -1.4150   -1.9580    0.7470 h1        1 MOL      0.042500
@<TRIPOS>BOND
     1    1    2 1   
     2    2    3 1   
     3    3    4 1   
     4    4    5 1   
     5    3    6 1   
     6    6    7 1   
     7    3    8 1   
     8    8    9 1   
     9    1   10 1   
    10    1   11 1   
    11    1   12 1   
    12    4   13 1   
    13    4   14 1   
    14    7   15 1   
    15    7   16 1   
    16    7   17 1   
    17    9   18 1   
    18    9   19 1   
    19    9   20 1   
@<TRIPOS>SUBSTRUCTURE
     1 MOL         1 TEMP              0 ****  ****    0 ROOT
