@<TRIPOS>MOLECULE
isopentyl
   20    19     1     0     0
SMALL
No Charge or Current Charge


@<TRIPOS>ATOM
      1 C1          0.1990   -1.0770    0.0120 c3        1 MOL     -0.097900
      2 C2         -0.6860   -1.8170   -0.9950 c3        1 MOL     -0.066200
      3 C3         -2.1580   -1.6370   -0.6190 c3        1 MOL     -0.097900
      4 C4         -0.3810   -1.3240   -2.4190 c3        1 MOL     -0.098600
      5 C5          1.0650   -1.5440   -2.8470 c3        1 MOL      0.131400
      6 O1          1.2280   -1.0520   -4.1720 os        1 MOL     -0.452200
      7 C6          2.4770   -1.1790   -4.6990 c         1 MOL      0.635500
      8 O2          3.4610   -1.6640   -4.1610 o         1 MOL     -0.541600
      9 H1          1.2580   -1.1940   -0.2410 hc        1 MOL      0.038300
     10 H2          0.0480   -1.4580    1.0280 hc        1 MOL      0.038300
     11 H3         -0.0260   -0.0050    0.0140 hc        1 MOL      0.038300
     12 H4         -0.4440   -2.8850   -0.9330 hc        1 MOL      0.042800
     13 H5         -2.8140   -2.1570   -1.3250 hc        1 MOL      0.038300
     14 H6         -2.4320   -0.5760   -0.6220 hc        1 MOL      0.038300
     15 H7         -2.3620   -2.0210    0.3850 hc        1 MOL      0.038300
     16 H8         -0.6050   -0.2510   -2.4910 hc        1 MOL      0.052600
     17 H9         -1.0490   -1.8100   -3.1420 hc        1 MOL      0.052600
     18 H10         1.7540   -1.0030   -2.1900 h1        1 MOL      0.066600
     19 H11         1.3260   -2.6060   -2.8460 h1        1 MOL      0.066600
     20 H12         2.4750   -0.7660   -5.7190 h5        1 MOL      0.076100
@<TRIPOS>BOND
     1    1    2 1   
     2    2    3 1   
     3    2    4 1   
     4    4    5 1   
     5    5    6 1   
     6    6    7 1   
     7    7    8 2   
     8    1    9 1   
     9    1   10 1   
    10    1   11 1   
    11    2   12 1   
    12    3   13 1   
    13    3   14 1   
    14    3   15 1   
    15    4   16 1   
    16    4   17 1   
    17    5   18 1   
    18    5   19 1   
    19    7   20 1   
@<TRIPOS>SUBSTRUCTURE
     1 MOL         1 TEMP              0 ****  ****    0 ROOT
