@<TRIPOS>MOLECULE
1-iodohexane
   20    19     1     0     0
SMALL
No Charge or Current Charge


@<TRIPOS>ATOM
      1 C1          0.1790    1.6250   -2.7500 c3        1 MOL     -0.092400
      2 C2         -0.5260    1.1630   -1.4850 c3        1 MOL     -0.080000
      3 C3          0.3540    0.2210   -0.6650 c3        1 MOL     -0.079800
      4 C4         -0.3590   -0.2410    0.6070 c3        1 MOL     -0.079000
      5 C5          0.5260   -1.1860    1.4270 c3        1 MOL     -0.076700
      6 C6         -0.1420   -1.6780    2.7120 c3        1 MOL      0.069100
      7 I1          1.1150   -2.9930    3.8350 i         1 MOL     -0.254400
      8 H1         -0.4590    2.2990   -3.3310 hc        1 MOL      0.033800
      9 H2          0.4280    0.7660   -3.3810 hc        1 MOL      0.033800
     10 H3          1.1080    2.1520   -2.5110 hc        1 MOL      0.033800
     11 H4         -0.7960    2.0390   -0.8840 hc        1 MOL      0.038400
     12 H5         -1.4600    0.6570   -1.7580 hc        1 MOL      0.038400
     13 H6          1.2880    0.7310   -0.3980 hc        1 MOL      0.040900
     14 H7          0.6250   -0.6510   -1.2730 hc        1 MOL      0.040900
     15 H8         -1.2900   -0.7550    0.3380 hc        1 MOL      0.042000
     16 H9         -0.6350    0.6360    1.2030 hc        1 MOL      0.042000
     17 H10         1.4860   -0.7030    1.6500 hc        1 MOL      0.053400
     18 H11         0.7540   -2.0640    0.8100 hc        1 MOL      0.053400
     19 H12        -0.4510   -0.8290    3.3320 h1        1 MOL      0.071200
     20 H13        -1.0530   -2.2260    2.4460 h1        1 MOL      0.071200
@<TRIPOS>BOND
     1    1    2 1   
     2    2    3 1   
     3    3    4 1   
     4    4    5 1   
     5    5    6 1   
     6    6    7 1   
     7    1    8 1   
     8    1    9 1   
     9    1   10 1   
    10    2   11 1   
    11    2   12 1   
    12    3   13 1   
    13    3   14 1   
    14    4   15 1   
    15    4   16 1   
    16    5   17 1   
    17    5   18 1   
    18    6   19 1   
    19    6   20 1   
@<TRIPOS>SUBSTRUCTURE
     1 MOL         1 TEMP              0 ****  ****    0 ROOT
