@<TRIPOS>MOLECULE
(2,2-dimethyl-3H-benzofuran-7-yl)
   31    32     1     0     0
SMALL
No Charge or Current Charge


@<TRIPOS>ATOM
      1 C1          5.0720   -3.7410   -0.4520 c3        1 MOL     -0.101300
      2 C2          3.7320   -4.0210   -1.1420 c3        1 MOL      0.142300
      3 C3          2.6860   -4.5830   -0.1500 c3        1 MOL     -0.044200
      4 C4          1.8590   -3.3750    0.0640 ca        1 MOL     -0.151600
      5 C5          0.8320   -3.1650    0.9680 ca        1 MOL     -0.078600
      6 C6          0.1670   -1.9370    0.9400 ca        1 MOL     -0.159600
      7 C7          0.5300   -0.9490    0.0100 ca        1 MOL     -0.090200
      8 C8          1.5630   -1.1770   -0.9010 ca        1 MOL      0.087300
      9 C9          2.2120   -2.3960   -0.8490 ca        1 MOL      0.125500
     10 O1          3.2390   -2.7590   -1.6790 os        1 MOL     -0.303700
     11 O2          1.9130   -0.2260   -1.8020 os        1 MOL     -0.357000
     12 C10         2.9090    0.6740   -1.3660 c         1 MOL      0.741500
     13 O3          3.4340    0.6180   -0.2580 o         1 MOL     -0.566100
     14 N1          3.1960    1.6030   -2.3450 n         1 MOL     -0.559400
     15 C11         4.1770    2.6520   -2.1870 c3        1 MOL      0.096100
     16 C12         3.9420   -4.9730   -2.3210 c3        1 MOL     -0.101300
     17 H1          5.4870   -4.6620   -0.0290 hc        1 MOL      0.049200
     18 H2          5.7950   -3.3330   -1.1650 hc        1 MOL      0.049200
     19 H3          4.9430   -3.0180    0.3590 hc        1 MOL      0.049200
     20 H4          2.0750   -5.3740   -0.5970 hc        1 MOL      0.067300
     21 H5          3.1380   -4.9540    0.7750 hc        1 MOL      0.067300
     22 H6          0.5440   -3.9320    1.6780 ha        1 MOL      0.136800
     23 H7         -0.6420   -1.7450    1.6400 ha        1 MOL      0.136000
     24 H8         -0.0040   -0.0020    0.0040 ha        1 MOL      0.146800
     25 H9          2.6910    1.5460   -3.2240 hn        1 MOL      0.332000
     26 H10         5.1520    2.2980   -2.5240 h1        1 MOL      0.046200
     27 H11         4.2440    2.9420   -1.1380 h1        1 MOL      0.046200
     28 H12         3.8880    3.5210   -2.7790 h1        1 MOL      0.046200
     29 H13         2.9890   -5.1700   -2.8080 hc        1 MOL      0.049200
     30 H14         4.3620   -5.9110   -1.9650 hc        1 MOL      0.049200
     31 H15         4.6250   -4.5240   -3.0380 hc        1 MOL      0.049200
@<TRIPOS>BOND
     1    1    2 1   
     2    2   10 1   
     3    2    3 1   
     4    3    4 1   
     5    4    9 ar  
     6    4    5 ar  
     7    5    6 ar  
     8    6    7 ar  
     9    7    8 ar  
    10    8    9 ar  
    11    9   10 1   
    12    8   11 1   
    13   11   12 1   
    14   12   13 2   
    15   12   14 1   
    16   14   15 1   
    17    2   16 1   
    18    1   17 1   
    19    1   18 1   
    20    1   19 1   
    21    3   20 1   
    22    3   21 1   
    23    5   22 1   
    24    6   23 1   
    25    7   24 1   
    26   14   25 1   
    27   15   26 1   
    28   15   27 1   
    29   15   28 1   
    30   16   29 1   
    31   16   30 1   
    32   16   31 1   
@<TRIPOS>SUBSTRUCTURE
     1 MOL         1 TEMP              0 ****  ****    0 ROOT
