@<TRIPOS>MOLECULE
(2R)-2-chloro-2-(difluoromethoxy)-1,1,1-trifluoro-ethane
   12    11     1     0     0
SMALL
No Charge or Current Charge


@<TRIPOS>ATOM
      1 C1         -0.5010   -0.1490    0.2830 c3        1 MOL      0.199100
      2 H1         -0.6960    0.8530    0.6800 h2        1 MOL      0.110900
      3 C2         -0.0730   -1.0690    1.4070 c3        1 MOL      0.648100
      4 F1         -1.0300   -1.1630    2.3550 f         1 MOL     -0.215600
      5 F2          1.0420   -0.5960    2.0080 f         1 MOL     -0.215600
      6 F3          0.1990   -2.3140    0.9630 f         1 MOL     -0.215600
      7 O1         -1.6690   -0.7020   -0.3210 os        1 MOL     -0.433200
      8 C3         -2.5240    0.2840   -0.8740 c3        1 MOL      0.591500
      9 F4         -2.9230    1.0950    0.1360 f         1 MOL     -0.220500
     10 F5         -3.6350   -0.3240   -1.3550 f         1 MOL     -0.220500
     11 Cl1         0.8030   -0.0340   -0.9260 cl        1 MOL     -0.138100
     12 H2         -2.0460    0.8840   -1.6550 h3        1 MOL      0.109600
@<TRIPOS>BOND
     1    1    2 1   
     2    1    3 1   
     3    3    4 1   
     4    3    5 1   
     5    3    6 1   
     6    1    7 1   
     7    7    8 1   
     8    8    9 1   
     9    8   10 1   
    10    1   11 1   
    11    8   12 1   
@<TRIPOS>SUBSTRUCTURE
     1 MOL         1 TEMP              0 ****  ****    0 ROOT
