@<TRIPOS>MOLECULE
[(1R)-1,5-dimethyl-1-vinyl-hex-4-enyl]
   34    33     1     0     0
SMALL
No Charge or Current Charge


@<TRIPOS>ATOM
      1 C1         -2.6920    0.8270    2.4840 c3        1 MOL     -0.064200
      2 C2         -3.1570    2.2530    2.3970 c2        1 MOL     -0.106300
      3 C3         -3.8620    2.8950    3.3480 c2        1 MOL     -0.178800
      4 C4         -4.3550    4.3160    3.3220 c3        1 MOL     -0.035600
      5 C5         -3.3160    5.2690    3.9220 c3        1 MOL     -0.103100
      6 C6         -3.7270    6.7610    3.9420 c3        1 MOL      0.213400
      7 C7         -5.0040    6.9710    4.7640 c3        1 MOL     -0.122700
      8 C8         -3.7700    7.3310    2.5390 c2        1 MOL     -0.159100
      9 C9         -4.8230    7.8660    1.9080 c2        1 MOL     -0.205800
     10 O1         -2.6940    7.4710    4.6470 os        1 MOL     -0.447300
     11 C10        -2.8900    8.8120    4.7640 c         1 MOL      0.642400
     12 O2         -3.8400    9.4520    4.3340 o         1 MOL     -0.555100
     13 C11        -1.7420    9.4150    5.5160 c3        1 MOL     -0.153200
     14 C12        -2.7590    2.9640    1.1310 c3        1 MOL     -0.064200
     15 H1         -3.4530    0.1580    2.0670 hc        1 MOL      0.041900
     16 H2         -2.5240    0.5490    3.5290 hc        1 MOL      0.041900
     17 H3         -1.7700    0.6370    1.9310 hc        1 MOL      0.041900
     18 H4         -4.1050    2.3540    4.2620 ha        1 MOL      0.117700
     19 H5         -4.5480    4.5780    2.2750 hc        1 MOL      0.045300
     20 H6         -5.3150    4.4120    3.8350 hc        1 MOL      0.045300
     21 H7         -2.3680    5.1690    3.3740 hc        1 MOL      0.066100
     22 H8         -3.0780    4.9490    4.9470 hc        1 MOL      0.066100
     23 H9         -5.2880    8.0300    4.7730 hc        1 MOL      0.054100
     24 H10        -5.8520    6.3950    4.3820 hc        1 MOL      0.054100
     25 H11        -4.8450    6.6930    5.8140 hc        1 MOL      0.054100
     26 H12        -2.8310    7.2990    1.9860 ha        1 MOL      0.131400
     27 H13        -4.7630    8.2520    0.8980 ha        1 MOL      0.115500
     28 H14        -5.7840    7.9250    2.4090 ha        1 MOL      0.115500
     29 H15        -0.9570    9.7140    4.8180 hc        1 MOL      0.074300
     30 H16        -1.3580    8.6970    6.2440 hc        1 MOL      0.074300
     31 H17        -2.0880   10.3030    6.0530 hc        1 MOL      0.074300
     32 H18        -3.5300    2.8310    0.3650 hc        1 MOL      0.041900
     33 H19        -2.6230    4.0400    1.2820 hc        1 MOL      0.041900
     34 H20        -1.8160    2.5600    0.7500 hc        1 MOL      0.041900
@<TRIPOS>BOND
     1    1    2 1   
     2    2    3 2   
     3    3    4 1   
     4    4    5 1   
     5    5    6 1   
     6    6    7 1   
     7    6    8 1   
     8    8    9 2   
     9    6   10 1   
    10   10   11 1   
    11   11   12 2   
    12   11   13 1   
    13    2   14 1   
    14    1   15 1   
    15    1   16 1   
    16    1   17 1   
    17    3   18 1   
    18    4   19 1   
    19    4   20 1   
    20    5   21 1   
    21    5   22 1   
    22    7   23 1   
    23    7   24 1   
    24    7   25 1   
    25    8   26 1   
    26    9   27 1   
    27    9   28 1   
    28   13   29 1   
    29   13   30 1   
    30   13   31 1   
    31   14   32 1   
    32   14   33 1   
    33   14   34 1   
@<TRIPOS>SUBSTRUCTURE
     1 MOL         1 TEMP              0 ****  ****    0 ROOT
