@<TRIPOS>MOLECULE
(1R,2S,3S,4R,5R,6S,9R,10S)-7,8,9,10,11,11-hexachloro-12-oxapentacyclo[BLAH.BLAH.BLAH.BLAH.BLAH.BLAH]tridec-7-ene
   27    31     1     0     0
SMALL
No Charge or Current Charge


@<TRIPOS>ATOM
      1 C1          2.5070   -0.0560   -0.4070 c3        1 MOL     -0.110500
      2 C2          1.9590   -0.7540    0.8420 c3        1 MOL     -0.048100
      3 H1          2.2450   -1.7990    0.9710 hc        1 MOL      0.096700
      4 C3          0.4280   -0.4690    0.8370 c3        1 MOL     -0.072100
      5 H2          0.1170   -0.4150    1.8930 hc        1 MOL      0.076500
      6 C4          0.3560    0.9710    0.1870 c3        1 MOL     -0.072100
      7 H3          0.0100    1.7000    0.9380 hc        1 MOL      0.076500
      8 C5          1.8570    1.2910   -0.0760 c3        1 MOL     -0.048100
      9 H4          2.0510    2.1020   -0.7790 hc        1 MOL      0.096700
     10 C6          2.4480    1.5460    1.3280 cx        1 MOL      0.042600
     11 H5          2.0740    2.3850    1.8910 h1        1 MOL      0.114200
     12 C7          2.5170    0.1730    1.9440 cx        1 MOL      0.042600
     13 H6          2.1950    0.0050    2.9580 h1        1 MOL      0.114200
     14 O1          3.6960    0.9340    1.6670 os        1 MOL     -0.377700
     15 C8         -0.7890    0.8010   -0.8700 c3        1 MOL      0.092400
     16 C9         -2.0210    0.6550    0.0330 c2        1 MOL     -0.041700
     17 C10        -1.9610   -0.5670    0.5880 c2        1 MOL     -0.041700
     18 C11        -0.6910   -1.2420    0.0570 c3        1 MOL      0.092400
     19 C12        -0.7770   -0.6680   -1.3890 c3        1 MOL      0.143500
     20 Cl1        -2.3240   -1.1460   -2.2790 cl        1 MOL     -0.093200
     21 Cl2         0.4460   -1.1470   -2.5700 cl        1 MOL     -0.093200
     22 Cl3        -0.6160   -2.9800    0.1860 cl        1 MOL     -0.073400
     23 Cl4        -3.0130   -1.2590    1.7190 cl        1 MOL     -0.003800
     24 Cl5        -3.1650    1.8740    0.2970 cl        1 MOL     -0.003800
     25 Cl6        -0.8580    2.0440   -2.0920 cl        1 MOL     -0.073400
     26 H7          2.2480   -0.4890   -1.3490 hc        1 MOL      0.082300
     27 H8          3.6040   -0.0080   -0.4200 hc        1 MOL      0.082300
@<TRIPOS>BOND
     1    1    8 1   
     2    1    2 1   
     3    2    3 1   
     4    2   12 1   
     5    2    4 1   
     6    4    5 1   
     7    4   18 1   
     8    4    6 1   
     9    6    7 1   
    10    6    8 1   
    11    8    9 1   
    12    8   10 1   
    13   10   11 1   
    14   10   14 1   
    15   10   12 1   
    16   12   13 1   
    17   12   14 1   
    18    6   15 1   
    19   15   19 1   
    20   15   16 1   
    21   16   17 2   
    22   17   18 1   
    23   18   19 1   
    24   19   20 1   
    25   19   21 1   
    26   18   22 1   
    27   17   23 1   
    28   16   24 1   
    29   15   25 1   
    30    1   26 1   
    31    1   27 1   
@<TRIPOS>SUBSTRUCTURE
     1 MOL         1 TEMP              0 ****  ****    0 ROOT
