@<TRIPOS>MOLECULE
4-nitrophenol
   15    15     1     0     0
SMALL
No Charge or Current Charge


@<TRIPOS>ATOM
      1 C1          1.8850   -1.0360   -0.1120 ca        1 MOL     -0.027900
      2 C2          2.9210   -1.6310    0.6080 ca        1 MOL     -0.200300
      3 C3          2.8780   -1.6520    2.0020 ca        1 MOL      0.170700
      4 C4          1.8000   -1.0790    2.6760 ca        1 MOL     -0.200300
      5 C5          0.7640   -0.4840    1.9550 ca        1 MOL     -0.027900
      6 C6          0.8070   -0.4630    0.5610 ca        1 MOL     -0.219300
      7 N1         -0.2490    0.1400   -0.1730 no        1 MOL      0.319200
      8 O1         -0.1910    0.1480   -1.4260 o         1 MOL     -0.212600
      9 O2         -1.2110    0.6490    0.4520 o         1 MOL     -0.212600
     10 O3          3.8890   -2.2320    2.7060 oh        1 MOL     -0.482500
     11 H1          1.9300   -1.0270   -1.1990 ha        1 MOL      0.174200
     12 H2          3.7590   -2.0760    0.0780 ha        1 MOL      0.157500
     13 H3          1.7600   -1.0930    3.7610 ha        1 MOL      0.157500
     14 H4         -0.0710   -0.0410    2.4920 ha        1 MOL      0.174200
     15 H5          4.5620   -2.5830    2.1010 ho        1 MOL      0.430100
@<TRIPOS>BOND
     1    1    6 ar  
     2    1    2 ar  
     3    2    3 ar  
     4    3    4 ar  
     5    4    5 ar  
     6    5    6 ar  
     7    6    7 1   
     8    7    8 1   
     9    7    9 1   
    10    3   10 1   
    11    1   11 1   
    12    2   12 1   
    13    4   13 1   
    14    5   14 1   
    15   10   15 1   
@<TRIPOS>SUBSTRUCTURE
     1 MOL         1 TEMP              0 ****  ****    0 ROOT
