@<TRIPOS>MOLECULE
1-chloro-2-phenyl-benzene
   22    23     1     0     0
SMALL
No Charge or Current Charge


@<TRIPOS>ATOM
      1 C1          1.8850   -1.0360   -0.1120 ca        1 MOL     -0.125400
      2 C2          2.9210   -1.6310    0.6080 ca        1 MOL     -0.131900
      3 C3          2.8780   -1.6520    2.0020 ca        1 MOL     -0.107900
      4 C4          1.8000   -1.0790    2.6760 cp        1 MOL     -0.048600
      5 C5          0.7640   -0.4840    1.9550 ca        1 MOL     -0.107900
      6 C6          0.8070   -0.4630    0.5610 ca        1 MOL     -0.131900
      7 C7          1.7550   -1.1010    4.1220 cp        1 MOL     -0.036100
      8 C8          1.1410   -2.1870    4.7450 ca        1 MOL     -0.109200
      9 C9          1.0760   -2.2470    6.1370 ca        1 MOL     -0.131500
     10 C10         1.6250   -1.2210    6.9060 ca        1 MOL     -0.120900
     11 C11         2.2400   -0.1350    6.2820 ca        1 MOL     -0.127900
     12 C12         2.3040   -0.0740    4.8900 ca        1 MOL      0.029400
     13 Cl1         3.0780    1.2960    4.1720 cl        1 MOL     -0.086400
     14 H1          1.9170   -1.0210   -1.1980 ha        1 MOL      0.130100
     15 H2          3.7600   -2.0790    0.0840 ha        1 MOL      0.132900
     16 H3          3.6930   -2.1200    2.5500 ha        1 MOL      0.138200
     17 H4         -0.0840   -0.0330    2.4660 ha        1 MOL      0.138200
     18 H5         -0.0010   -0.0020    0.0000 ha        1 MOL      0.132900
     19 H6          0.7070   -2.9960    4.1620 ha        1 MOL      0.143500
     20 H7          0.5980   -3.0930    6.6220 ha        1 MOL      0.136600
     21 H8          1.5750   -1.2680    7.9900 ha        1 MOL      0.136200
     22 H9          2.6630    0.6560    6.8970 ha        1 MOL      0.147700
@<TRIPOS>BOND
     1    1    6 ar  
     2    1    2 ar  
     3    2    3 ar  
     4    3    4 ar  
     5    4    5 ar  
     6    5    6 ar  
     7    4    7 1   
     8    7   12 ar  
     9    7    8 ar  
    10    8    9 ar  
    11    9   10 ar  
    12   10   11 ar  
    13   11   12 ar  
    14   12   13 1   
    15    1   14 1   
    16    2   15 1   
    17    3   16 1   
    18    5   17 1   
    19    6   18 1   
    20    8   19 1   
    21    9   20 1   
    22   10   21 1   
    23   11   22 1   
@<TRIPOS>SUBSTRUCTURE
     1 MOL         1 TEMP              0 ****  ****    0 ROOT
