@<TRIPOS>MOLECULE
1,3-dichloro-2-(2,6-dichlorophenyl)benzene
   22    23     1     0     0
SMALL
No Charge or Current Charge


@<TRIPOS>ATOM
      1 C1          1.8850   -1.0360   -0.1120 ca        1 MOL     -0.106200
      2 C2          2.9210   -1.6310    0.6080 ca        1 MOL     -0.128900
      3 C3          2.8780   -1.6520    2.0020 ca        1 MOL      0.049300
      4 C4          1.8000   -1.0790    2.6760 cp        1 MOL     -0.034900
      5 C5          0.7640   -0.4840    1.9550 ca        1 MOL      0.049300
      6 C6          0.8070   -0.4630    0.5610 ca        1 MOL     -0.128900
      7 Cl1        -0.6020    0.2450    2.7290 cl        1 MOL     -0.073300
      8 C7          1.7550   -1.1010    4.1300 cp        1 MOL     -0.034900
      9 C8          1.1510   -2.1690    4.7930 ca        1 MOL      0.049300
     10 C9          1.1090   -2.1910    6.1870 ca        1 MOL     -0.128900
     11 C10         1.6700   -1.1450    6.9180 ca        1 MOL     -0.106000
     12 C11         2.2750   -0.0760    6.2550 ca        1 MOL     -0.128900
     13 C12         2.3170   -0.0540    4.8610 ca        1 MOL      0.049300
     14 Cl2         3.0820    1.2990    4.1000 cl        1 MOL     -0.073300
     15 Cl3         0.4350   -3.4980    3.9460 cl        1 MOL     -0.073300
     16 Cl4         4.1950   -2.4050    2.8370 cl        1 MOL     -0.073300
     17 H1          1.9180   -1.0200   -1.1980 ha        1 MOL      0.142600
     18 H2          3.7540   -2.0730    0.0670 ha        1 MOL      0.152200
     19 H3          0.0080   -0.0040   -0.0170 ha        1 MOL      0.152200
     20 H4          0.6430   -3.0160    6.7210 ha        1 MOL      0.152200
     21 H5          1.6370   -1.1620    8.0040 ha        1 MOL      0.142600
     22 H6          2.7050    0.7320    6.8410 ha        1 MOL      0.152200
@<TRIPOS>BOND
     1    1    6 ar  
     2    1    2 ar  
     3    2    3 ar  
     4    3    4 ar  
     5    4    5 ar  
     6    5    6 ar  
     7    5    7 1   
     8    4    8 1   
     9    8   13 ar  
    10    8    9 ar  
    11    9   10 ar  
    12   10   11 ar  
    13   11   12 ar  
    14   12   13 ar  
    15   13   14 1   
    16    9   15 1   
    17    3   16 1   
    18    1   17 1   
    19    2   18 1   
    20    6   19 1   
    21   10   20 1   
    22   11   21 1   
    23   12   22 1   
@<TRIPOS>SUBSTRUCTURE
     1 MOL         1 TEMP              0 ****  ****    0 ROOT
