@<TRIPOS>MOLECULE
methyl
   17    16     1     0     0
SMALL
No Charge or Current Charge


@<TRIPOS>ATOM
      1 C1         -0.3790   -0.6980    0.7530 c3        1 MOL     -0.093900
      2 C2          0.4050   -0.5790    2.0500 c3        1 MOL     -0.079500
      3 C3          1.8850   -0.8880    1.8410 c3        1 MOL     -0.128200
      4 C4          2.6750   -0.7720    3.1240 c         1 MOL      0.629500
      5 O1          2.2100   -0.4690    4.2140 o         1 MOL     -0.537400
      6 O2          3.9850   -1.0620    2.8650 os        1 MOL     -0.448200
      7 C5          4.8650   -0.9950    3.9920 c3        1 MOL      0.126900
      8 H1         -1.4350   -0.4720    0.9260 hc        1 MOL      0.036800
      9 H2         -0.0010    0.0010    0.0010 hc        1 MOL      0.036800
     10 H3         -0.3100   -1.7120    0.3460 hc        1 MOL      0.036800
     11 H4         -0.0190   -1.2650    2.7930 hc        1 MOL      0.056400
     12 H5          0.2870    0.4350    2.4520 hc        1 MOL      0.056400
     13 H6          2.3100   -0.1870    1.1130 hc        1 MOL      0.078900
     14 H7          1.9990   -1.9090    1.4600 hc        1 MOL      0.078900
     15 H8          5.8720   -1.2440    3.6640 h1        1 MOL      0.049900
     16 H9          4.5200   -1.6980    4.7470 h1        1 MOL      0.049900
     17 H10         4.8390    0.0190    4.3840 h1        1 MOL      0.049900
@<TRIPOS>BOND
     1    1    2 1   
     2    2    3 1   
     3    3    4 1   
     4    4    5 2   
     5    4    6 1   
     6    6    7 1   
     7    1    8 1   
     8    1    9 1   
     9    1   10 1   
    10    2   11 1   
    11    2   12 1   
    12    3   13 1   
    13    3   14 1   
    14    7   15 1   
    15    7   16 1   
    16    7   17 1   
@<TRIPOS>SUBSTRUCTURE
     1 MOL         1 TEMP              0 ****  ****    0 ROOT
