@<TRIPOS>MOLECULE
1-bromo-2-methyl-propane
   14    13     1     0     0
SMALL
No Charge or Current Charge


@<TRIPOS>ATOM
      1 C1          0.5610   -0.7590    1.0930 c3        1 MOL     -0.095000
      2 C2         -0.3600   -0.1370    0.0400 c3        1 MOL     -0.064500
      3 C3         -0.5280    1.3560    0.3290 c3        1 MOL     -0.095000
      4 C4          0.1780   -0.3280   -1.3770 c3        1 MOL     -0.007100
      5 Br1         0.3630   -2.2180   -1.8170 br        1 MOL     -0.178900
      6 H1          0.7030   -1.8300    0.9150 hc        1 MOL      0.039700
      7 H2          1.5480   -0.2820    1.0730 hc        1 MOL      0.039700
      8 H3          0.1610   -0.6340    2.1040 hc        1 MOL      0.039700
      9 H4         -1.3480   -0.6080    0.1280 hc        1 MOL      0.059800
     10 H5         -1.1840    1.8330   -0.4080 hc        1 MOL      0.039700
     11 H6          0.4390    1.8690    0.3040 hc        1 MOL      0.039700
     12 H7         -0.9630    1.5140    1.3220 hc        1 MOL      0.039700
     13 H8          1.1620    0.1290   -1.5170 h1        1 MOL      0.071300
     14 H9         -0.5100    0.0730   -2.1280 h1        1 MOL      0.071300
@<TRIPOS>BOND
     1    1    2 1   
     2    2    3 1   
     3    2    4 1   
     4    4    5 1   
     5    1    6 1   
     6    1    7 1   
     7    1    8 1   
     8    2    9 1   
     9    3   10 1   
    10    3   11 1   
    11    3   12 1   
    12    4   13 1   
    13    4   14 1   
@<TRIPOS>SUBSTRUCTURE
     1 MOL         1 TEMP              0 ****  ****    0 ROOT
