@<TRIPOS>MOLECULE
2,5-dimethylpyridine
   17    17     1     0     0
SMALL
No Charge or Current Charge


@<TRIPOS>ATOM
      1 C1          2.8860   -0.2680    3.6510 c3        1 MOL     -0.049400
      2 C2          1.6520   -0.6230    2.9000 ca        1 MOL     -0.198900
      3 C3          1.3880   -0.0680    1.6520 ca        1 MOL     -0.092800
      4 C4          0.2270   -0.4200    0.9730 ca        1 MOL     -0.244400
      5 C5         -0.6320   -1.3220    1.5800 ca        1 MOL      0.406400
      6 N1         -0.4090   -1.8820    2.7910 nb        1 MOL     -0.666600
      7 C6          0.7300   -1.5160    3.4210 ca        1 MOL      0.400300
      8 C7         -1.8870   -1.7230    0.8800 c3        1 MOL     -0.149200
      9 H1          3.6950   -0.9570    3.3880 hc        1 MOL      0.045900
     10 H2          3.2030    0.7540    3.4210 hc        1 MOL      0.045900
     11 H3          2.7140   -0.3190    4.7310 hc        1 MOL      0.045900
     12 H4          2.0810    0.6370    1.2010 ha        1 MOL      0.136700
     13 H5          0.0080    0.0060   -0.0000 ha        1 MOL      0.141100
     14 H6          0.8830   -1.9810    4.3900 h4        1 MOL      0.021000
     15 H7         -1.7080   -2.6030    0.2510 hc        1 MOL      0.052700
     16 H8         -2.6830   -1.9620    1.5970 hc        1 MOL      0.052700
     17 H9         -2.2640   -0.9110    0.2450 hc        1 MOL      0.052700
@<TRIPOS>BOND
     1    1    2 1   
     2    2    7 ar  
     3    2    3 ar  
     4    3    4 ar  
     5    4    5 ar  
     6    5    6 ar  
     7    6    7 ar  
     8    5    8 1   
     9    1    9 1   
    10    1   10 1   
    11    1   11 1   
    12    3   12 1   
    13    4   13 1   
    14    7   14 1   
    15    8   15 1   
    16    8   16 1   
    17    8   17 1   
@<TRIPOS>SUBSTRUCTURE
     1 MOL         1 TEMP              0 ****  ****    0 ROOT
