@<TRIPOS>MOLECULE
3-chloroprop-1-ene
    9     8     1     0     0
SMALL
No Charge or Current Charge


@<TRIPOS>ATOM
      1 C1         -0.3490    1.3200    0.4080 c2        1 MOL     -0.196000
      2 C2         -0.3590   -0.0180    0.4250 c2        1 MOL     -0.182700
      3 C3          0.3240   -0.8670   -0.5950 c3        1 MOL      0.068200
      4 Cl1         1.5400   -1.8960    0.1890 cl        1 MOL     -0.193400
      5 H1         -0.8720    1.8820    1.1740 ha        1 MOL      0.116200
      6 H2          0.1750    1.8740   -0.3620 ha        1 MOL      0.116200
      7 H3         -0.9070   -0.5230    1.2160 ha        1 MOL      0.133700
      8 H4         -0.4020   -1.5180   -1.0910 h1        1 MOL      0.068900
      9 H5          0.8320   -0.2720   -1.3600 h1        1 MOL      0.068900
@<TRIPOS>BOND
     1    1    2 2   
     2    2    3 1   
     3    3    4 1   
     4    1    5 1   
     5    1    6 1   
     6    2    7 1   
     7    3    8 1   
     8    3    9 1   
@<TRIPOS>SUBSTRUCTURE
     1 MOL         1 TEMP              0 ****  ****    0 ROOT
