@<TRIPOS>MOLECULE
3,4-dimethylphenol
   19    19     1     0     0
SMALL
No Charge or Current Charge


@<TRIPOS>ATOM
      1 C1          1.9520   -1.0270   -1.6040 c3        1 MOL     -0.049300
      2 C2          1.8850   -1.0360   -0.1120 ca        1 MOL     -0.109600
      3 C3          2.9210   -1.6310    0.6080 ca        1 MOL     -0.090200
      4 C4          2.8780   -1.6520    2.0020 ca        1 MOL     -0.212300
      5 C5          1.8000   -1.0790    2.6760 ca        1 MOL      0.121700
      6 C6          0.7640   -0.4840    1.9550 ca        1 MOL     -0.158000
      7 C7          0.8070   -0.4630    0.5610 ca        1 MOL     -0.041500
      8 C8         -0.3150    0.1780   -0.1890 c3        1 MOL     -0.056200
      9 O1          1.7580   -1.1000    4.0360 oh        1 MOL     -0.499600
     10 H1          2.4650   -0.1240   -1.9500 hc        1 MOL      0.042000
     11 H2          2.4900   -1.9040   -1.9770 hc        1 MOL      0.042000
     12 H3          0.9480   -1.0530   -2.0410 hc        1 MOL      0.042000
     13 H4          3.7650   -2.0810    0.0920 ha        1 MOL      0.132000
     14 H5          3.6890   -2.1160    2.5580 ha        1 MOL      0.132400
     15 H6         -0.0760   -0.0390    2.4830 ha        1 MOL      0.148600
     16 H7         -0.1050    1.2410   -0.3510 hc        1 MOL      0.046300
     17 H8         -0.4640   -0.3020   -1.1650 hc        1 MOL      0.046300
     18 H9         -1.2610    0.0870    0.3590 hc        1 MOL      0.046300
     19 H10         2.5440   -1.5460    4.3900 ho        1 MOL      0.417100
@<TRIPOS>BOND
     1    1    2 1   
     2    2    7 ar  
     3    2    3 ar  
     4    3    4 ar  
     5    4    5 ar  
     6    5    6 ar  
     7    6    7 ar  
     8    7    8 1   
     9    5    9 1   
    10    1   10 1   
    11    1   11 1   
    12    1   12 1   
    13    3   13 1   
    14    4   14 1   
    15    6   15 1   
    16    8   16 1   
    17    8   17 1   
    18    8   18 1   
    19    9   19 1   
@<TRIPOS>SUBSTRUCTURE
     1 MOL         1 TEMP              0 ****  ****    0 ROOT
