@<TRIPOS>MOLECULE
(2R,3R,4R,5R)-hexane-1,2,3,4,5,6-hexol
   26    25     1     0     0
SMALL
No Charge or Current Charge


@<TRIPOS>ATOM
      1 C1          1.0220   -1.6250    5.7470 c3        1 MOL      0.116900
      2 C2          0.3620   -2.1090    4.4560 c3        1 MOL      0.121400
      3 H1          0.2470   -3.1990    4.4790 h1        1 MOL      0.061600
      4 C3          1.0870   -1.6630    3.1710 c3        1 MOL      0.117700
      5 H2          1.0980   -0.5670    3.1560 h1        1 MOL      0.056400
      6 C4          0.4370   -2.1910    1.8810 c3        1 MOL      0.117700
      7 H3         -0.5960   -1.8290    1.8150 h1        1 MOL      0.056400
      8 C5          1.1730   -1.7660    0.5950 c3        1 MOL      0.121400
      9 H4          2.2060   -2.1340    0.5970 h1        1 MOL      0.061600
     10 C6          0.4730   -2.1840   -0.6960 c3        1 MOL      0.116900
     11 O1          1.2490   -1.7340   -1.8040 oh        1 MOL     -0.607200
     12 O2          1.2570   -0.3350    0.5780 oh        1 MOL     -0.600700
     13 O3          0.3790   -3.6150    1.9440 oh        1 MOL     -0.603900
     14 O4          2.4470   -2.0950    3.2120 oh        1 MOL     -0.603900
     15 O5         -0.9640   -1.5660    4.4350 oh        1 MOL     -0.600700
     16 O6          0.4990   -2.3530    6.8560 oh        1 MOL     -0.607200
     17 H5          0.8090   -0.5680    5.9310 h1        1 MOL      0.047500
     18 H6          2.1050   -1.7710    5.7380 h1        1 MOL      0.047500
     19 H7         -0.5190   -1.7340   -0.7830 h1        1 MOL      0.047500
     20 H8          0.3890   -3.2730   -0.7710 h1        1 MOL      0.047500
     21 H9          0.7780   -2.0150   -2.6030 ho        1 MOL      0.408100
     22 H10         1.7220   -0.1030   -0.2380 ho        1 MOL      0.411400
     23 H11         1.2940   -3.9240    2.0280 ho        1 MOL      0.423300
     24 H12         2.4250   -3.0610    3.2790 ho        1 MOL      0.423300
     25 H13        -1.4070   -1.9090    5.2240 ho        1 MOL      0.411400
     26 H14         0.9460   -2.0110    7.6460 ho        1 MOL      0.408100
@<TRIPOS>BOND
     1    1    2 1   
     2    2    3 1   
     3    2    4 1   
     4    4    5 1   
     5    4    6 1   
     6    6    7 1   
     7    6    8 1   
     8    8    9 1   
     9    8   10 1   
    10   10   11 1   
    11    8   12 1   
    12    6   13 1   
    13    4   14 1   
    14    2   15 1   
    15    1   16 1   
    16    1   17 1   
    17    1   18 1   
    18   10   19 1   
    19   10   20 1   
    20   11   21 1   
    21   12   22 1   
    22   13   23 1   
    23   14   24 1   
    24   15   25 1   
    25   16   26 1   
@<TRIPOS>SUBSTRUCTURE
     1 MOL         1 TEMP              0 ****  ****    0 ROOT
