@<TRIPOS>MOLECULE
isobutylbenzene
   24    24     1     0     0
SMALL
No Charge or Current Charge


@<TRIPOS>ATOM
      1 C1          0.1920   -0.1010    0.9400 c3        1 MOL     -0.091900
      2 C2         -0.6430    0.6470    1.9820 c3        1 MOL     -0.062800
      3 C3         -0.0720    0.3940    3.3790 c3        1 MOL     -0.091900
      4 C4         -0.6900    2.1630    1.7040 c3        1 MOL     -0.034200
      5 C5         -1.2870    2.5200    0.3650 ca        1 MOL     -0.074200
      6 C6         -0.4670    2.6260   -0.7580 ca        1 MOL     -0.128000
      7 C7         -1.0180    2.9560   -1.9960 ca        1 MOL     -0.129500
      8 C8         -2.3900    3.1800   -2.1110 ca        1 MOL     -0.133000
      9 C9         -3.2110    3.0730   -0.9880 ca        1 MOL     -0.129500
     10 C10        -2.6590    2.7430    0.2500 ca        1 MOL     -0.128000
     11 H1         -0.1950    0.0620   -0.0720 hc        1 MOL      0.034900
     12 H2          0.1970   -1.1790    1.1330 hc        1 MOL      0.034900
     13 H3          1.2330    0.2380    0.9620 hc        1 MOL      0.034900
     14 H4         -1.6620    0.2390    1.9590 hc        1 MOL      0.049100
     15 H5         -0.6560    0.9220    4.1400 hc        1 MOL      0.034900
     16 H6         -0.0810   -0.6730    3.6250 hc        1 MOL      0.034900
     17 H7          0.9610    0.7500    3.4470 hc        1 MOL      0.034900
     18 H8          0.3180    2.5890    1.7890 hc        1 MOL      0.047000
     19 H9         -1.2870    2.6640    2.4780 hc        1 MOL      0.047000
     20 H10         0.6030    2.4540   -0.6780 ha        1 MOL      0.130500
     21 H11        -0.3790    3.0390   -2.8710 ha        1 MOL      0.129700
     22 H12        -2.8200    3.4370   -3.0750 ha        1 MOL      0.130100
     23 H13        -4.2790    3.2480   -1.0780 ha        1 MOL      0.129700
     24 H14        -3.3070    2.6620    1.1190 ha        1 MOL      0.130500
@<TRIPOS>BOND
     1    1    2 1   
     2    2    3 1   
     3    2    4 1   
     4    4    5 1   
     5    5   10 ar  
     6    5    6 ar  
     7    6    7 ar  
     8    7    8 ar  
     9    8    9 ar  
    10    9   10 ar  
    11    1   11 1   
    12    1   12 1   
    13    1   13 1   
    14    2   14 1   
    15    3   15 1   
    16    3   16 1   
    17    3   17 1   
    18    4   18 1   
    19    4   19 1   
    20    6   20 1   
    21    7   21 1   
    22    8   22 1   
    23    9   23 1   
    24   10   24 1   
@<TRIPOS>SUBSTRUCTURE
     1 MOL         1 TEMP              0 ****  ****    0 ROOT
