@<TRIPOS>MOLECULE
1-(3-pyridyl)ethanone
   16    16     1     0     0
SMALL
No Charge or Current Charge


@<TRIPOS>ATOM
      1 C1          3.4280   -1.3160    4.5410 c3        1 MOL     -0.198200
      2 C2          2.8570   -0.2750    3.6320 c         1 MOL      0.581100
      3 O1          3.4280    0.8080    3.5570 o         1 MOL     -0.529000
      4 C3          1.6520   -0.6230    2.9000 ca        1 MOL     -0.291000
      5 C4          1.3880   -0.0680    1.6520 ca        1 MOL     -0.042000
      6 C5          0.2270   -0.4200    0.9730 ca        1 MOL     -0.256500
      7 C6         -0.6320   -1.3220    1.5800 ca        1 MOL      0.415600
      8 N1         -0.4090   -1.8820    2.7910 nb        1 MOL     -0.670700
      9 C7          0.7300   -1.5160    3.4210 ca        1 MOL      0.429200
     10 H1          3.0360   -1.2800    5.5700 hc        1 MOL      0.067300
     11 H2          4.5270   -1.2830    4.6050 hc        1 MOL      0.067300
     12 H3          3.2020   -2.3450    4.2100 hc        1 MOL      0.067300
     13 H4          2.0800    0.6370    1.2000 ha        1 MOL      0.158600
     14 H5         -0.0010   -0.0000    0.0000 ha        1 MOL      0.149600
     15 H6         -1.5510   -1.6290    1.0920 h4        1 MOL      0.026200
     16 H7          0.8810   -1.9810    4.3900 h4        1 MOL      0.025200
@<TRIPOS>BOND
     1    1    2 1   
     2    2    3 2   
     3    2    4 1   
     4    4    9 ar  
     5    4    5 ar  
     6    5    6 ar  
     7    6    7 ar  
     8    7    8 ar  
     9    8    9 ar  
    10    1   10 1   
    11    1   11 1   
    12    1   12 1   
    13    5   13 1   
    14    6   14 1   
    15    7   15 1   
    16    9   16 1   
@<TRIPOS>SUBSTRUCTURE
     1 MOL         1 TEMP              0 ****  ****    0 ROOT
