@<TRIPOS>MOLECULE
phenoxybenzene
   23    24     1     0     0
SMALL
No Charge or Current Charge


@<TRIPOS>ATOM
      1 C1          1.8830   -1.0350   -0.1130 ca        1 MOL     -0.145100
      2 C2          3.0690   -0.9910    0.6220 ca        1 MOL     -0.112700
      3 C3          3.0270   -1.0130    2.0160 ca        1 MOL     -0.150500
      4 C4          1.8000   -1.0790    2.6760 ca        1 MOL      0.098400
      5 C5          0.6150   -1.1230    1.9420 ca        1 MOL     -0.150500
      6 C6          0.6560   -1.1010    0.5470 ca        1 MOL     -0.112700
      7 O1          1.7590   -1.0980    4.0360 os        1 MOL     -0.254400
      8 C7          2.6460   -1.9330    4.6940 ca        1 MOL      0.098400
      9 C8          3.3520   -1.4660    5.8030 ca        1 MOL     -0.150500
     10 C9          4.2450   -2.3070    6.4670 ca        1 MOL     -0.112700
     11 C10         4.4330   -3.6160    6.0210 ca        1 MOL     -0.145000
     12 C11         3.7270   -4.0830    4.9120 ca        1 MOL     -0.112700
     13 C12         2.8340   -3.2420    4.2490 ca        1 MOL     -0.150500
     14 H1          1.9170   -1.0190   -1.1980 ha        1 MOL      0.134500
     15 H2          4.0240   -0.9400    0.1070 ha        1 MOL      0.134600
     16 H3          3.9530   -0.9770    2.5830 ha        1 MOL      0.148300
     17 H4         -0.3450   -1.1720    2.4500 ha        1 MOL      0.148300
     18 H5         -0.2670   -1.1350   -0.0240 ha        1 MOL      0.134600
     19 H6          3.2090   -0.4480    6.1550 ha        1 MOL      0.148300
     20 H7          4.7940   -1.9440    7.3300 ha        1 MOL      0.134600
     21 H8          5.1270   -4.2710    6.5390 ha        1 MOL      0.134500
     22 H9          3.8730   -5.1020    4.5660 ha        1 MOL      0.134600
     23 H10         2.2870   -3.6110    3.3860 ha        1 MOL      0.148300
@<TRIPOS>BOND
     1    1    6 ar  
     2    1    2 ar  
     3    2    3 ar  
     4    3    4 ar  
     5    4    5 ar  
     6    5    6 ar  
     7    4    7 1   
     8    7    8 1   
     9    8   13 ar  
    10    8    9 ar  
    11    9   10 ar  
    12   10   11 ar  
    13   11   12 ar  
    14   12   13 ar  
    15    1   14 1   
    16    2   15 1   
    17    3   16 1   
    18    5   17 1   
    19    6   18 1   
    20    9   19 1   
    21   10   20 1   
    22   11   21 1   
    23   12   22 1   
    24   13   23 1   
@<TRIPOS>SUBSTRUCTURE
     1 MOL         1 TEMP              0 ****  ****    0 ROOT
