@<TRIPOS>MOLECULE
propanamide
   12    11     1     0     0
SMALL
No Charge or Current Charge


@<TRIPOS>ATOM
      1 C1          0.6300    0.2720    0.8540 c3        1 MOL     -0.084700
      2 C2          1.0470   -0.9600    1.6360 c3        1 MOL     -0.152000
      3 C3         -0.1380   -1.7280    2.1840 c         1 MOL      0.659500
      4 O1         -1.3080   -1.3950    2.0150 o         1 MOL     -0.607600
      5 N1          0.2450   -2.8460    2.8930 n         1 MOL     -0.686500
      6 H1          1.5100    0.7990    0.4750 hc        1 MOL      0.045900
      7 H2         -0.0000    0.0000    0.0000 hc        1 MOL      0.045900
      8 H3          0.0600    0.9630    1.4830 hc        1 MOL      0.045900
      9 H4          1.6870   -0.6640    2.4750 hc        1 MOL      0.057900
     10 H5          1.6260   -1.6290    0.9890 hc        1 MOL      0.057900
     11 H6          1.2200   -3.1020    3.0180 hn        1 MOL      0.309000
     12 H7         -0.4450   -3.4570    3.3180 hn        1 MOL      0.309000
@<TRIPOS>BOND
     1    1    2 1   
     2    2    3 1   
     3    3    4 2   
     4    3    5 1   
     5    1    6 1   
     6    1    7 1   
     7    1    8 1   
     8    2    9 1   
     9    2   10 1   
    10    5   11 1   
    11    5   12 1   
@<TRIPOS>SUBSTRUCTURE
     1 MOL         1 TEMP              0 ****  ****    0 ROOT
