@<TRIPOS>MOLECULE
[(1S)-1-methyl-2-nitrooxy-ethyl]
   17    16     1     0     0
SMALL
No Charge or Current Charge


@<TRIPOS>ATOM
      1 C1         -0.4240    0.8110    0.6000 c3        1 MOL     -0.138200
      2 C2         -0.1830    0.5830    2.0850 c3        1 MOL      0.152200
      3 H1          0.8910    0.5690    2.3020 h1        1 MOL      0.102300
      4 C3         -0.8750    1.6440    2.9310 c3        1 MOL      0.123300
      5 O1         -0.6160    1.3810    4.3060 os        1 MOL     -0.351100
      6 N1         -1.2210    2.3190    5.1860 no        1 MOL      0.379900
      7 O2         -1.8830    3.2300    4.6850 o         1 MOL     -0.165500
      8 O3         -0.9880    2.0790    6.3720 o         1 MOL     -0.165500
      9 O4         -0.7100   -0.6920    2.4480 os        1 MOL     -0.370400
     10 N2          0.1490   -1.7720    2.1100 no        1 MOL      0.384500
     11 O5          1.2190   -1.5060    1.5590 o         1 MOL     -0.172300
     12 O6         -0.3180   -2.8670    2.4290 o         1 MOL     -0.172300
     13 H2         -1.4970    0.8250    0.3840 hc        1 MOL      0.068100
     14 H3          0.0100    1.7590    0.2680 hc        1 MOL      0.068100
     15 H4          0.0060   -0.0020    0.0040 hc        1 MOL      0.068100
     16 H5         -0.4940    2.6450    2.7030 h1        1 MOL      0.094400
     17 H6         -1.9590    1.6230    2.7800 h1        1 MOL      0.094400
@<TRIPOS>BOND
     1    1    2 1   
     2    2    3 1   
     3    2    4 1   
     4    4    5 1   
     5    5    6 1   
     6    6    7 1   
     7    6    8 1   
     8    2    9 1   
     9    9   10 1   
    10   10   11 1   
    11   10   12 1   
    12    1   13 1   
    13    1   14 1   
    14    1   15 1   
    15    4   16 1   
    16    4   17 1   
@<TRIPOS>SUBSTRUCTURE
     1 MOL         1 TEMP              0 ****  ****    0 ROOT
