@<TRIPOS>MOLECULE
acetic
    8     7     1     0     0
SMALL
No Charge or Current Charge


@<TRIPOS>ATOM
      1 C1         -1.0280    0.3450   -0.1340 c3        1 MOL     -0.197700
      2 C2         -1.6530    0.6110    1.1990 c         1 MOL      0.623700
      3 O1         -2.6520    0.0530    1.6300 o         1 MOL     -0.484500
      4 O2         -0.9600    1.5620    1.8710 oh        1 MOL     -0.586800
      5 H1         -1.4620    1.0090   -0.8860 hc        1 MOL      0.074400
      6 H2          0.0530    0.4880   -0.0720 hc        1 MOL      0.074400
      7 H3         -1.2260   -0.6910   -0.4260 hc        1 MOL      0.074400
      8 H4         -0.1900    1.8860    1.3580 ho        1 MOL      0.422000
@<TRIPOS>BOND
     1    1    2 1   
     2    2    3 2   
     3    2    4 1   
     4    1    5 1   
     5    1    6 1   
     6    1    7 1   
     7    4    8 1   
@<TRIPOS>SUBSTRUCTURE
     1 MOL         1 TEMP              0 ****  ****    0 ROOT
