@<TRIPOS>MOLECULE
(3aR,7aR)-2-(trichloromethylsulfanyl)-3a,4,7,7a-tetrahydroisoindole-1,3-dione
   24    25     1     0     0
SMALL
No Charge or Current Charge


@<TRIPOS>ATOM
      1 C1         -1.7040    1.3900    0.1390 c3        1 MOL     -0.034800
      2 C2         -1.8320    1.9210   -1.2710 c2        1 MOL     -0.169900
      3 C3         -1.0010    1.5780   -2.2740 c2        1 MOL     -0.169900
      4 C4          0.1160    0.5700   -2.1260 c3        1 MOL     -0.034800
      5 C5         -0.0710   -0.2190   -0.8420 c3        1 MOL     -0.140600
      6 H1         -0.9130   -0.9170   -0.9690 hc        1 MOL      0.099100
      7 C6         -0.3470    0.7350    0.3190 c3        1 MOL     -0.140600
      8 H2          0.4270    1.5170    0.3610 hc        1 MOL      0.099100
      9 C7         -0.0980   -0.1530    1.5120 c         1 MOL      0.706200
     10 O1         -0.5950   -0.0150    2.6180 o         1 MOL     -0.525500
     11 N1          0.8600   -1.0620    1.0760 n         1 MOL     -0.468400
     12 C8          1.0670   -1.0440   -0.2990 c         1 MOL      0.706200
     13 O2          1.9150   -1.6140   -0.9660 o         1 MOL     -0.525500
     14 S1          1.6890   -2.0880    2.1190 ss        1 MOL      0.102000
     15 C9          3.1270   -1.0470    2.5320 c3        1 MOL      0.232700
     16 Cl1         4.1870   -1.9500    3.6640 cl        1 MOL     -0.095600
     17 Cl2         4.0800   -0.6530    1.0710 cl        1 MOL     -0.095600
     18 Cl3         2.6170    0.4670    3.3360 cl        1 MOL     -0.095600
     19 H3         -2.5190    0.6850    0.3410 hc        1 MOL      0.070200
     20 H4         -1.8110    2.2150    0.8530 hc        1 MOL      0.070200
     21 H5         -2.6320    2.6310   -1.4650 ha        1 MOL      0.135300
     22 H6         -1.1390    2.0280   -3.2530 ha        1 MOL      0.135300
     23 H7          0.1080   -0.1150   -2.9810 hc        1 MOL      0.070200
     24 H8          1.0820    1.0880   -2.1400 hc        1 MOL      0.070200
@<TRIPOS>BOND
     1    1    7 1   
     2    1    2 1   
     3    2    3 2   
     4    3    4 1   
     5    4    5 1   
     6    5    6 1   
     7    5   12 1   
     8    5    7 1   
     9    7    8 1   
    10    7    9 1   
    11    9   10 2   
    12    9   11 1   
    13   11   12 1   
    14   12   13 2   
    15   11   14 1   
    16   14   15 1   
    17   15   16 1   
    18   15   17 1   
    19   15   18 1   
    20    1   19 1   
    21    1   20 1   
    22    2   21 1   
    23    3   22 1   
    24    4   23 1   
    25    4   24 1   
@<TRIPOS>SUBSTRUCTURE
     1 MOL         1 TEMP              0 ****  ****    0 ROOT
