@<TRIPOS>MOLECULE
hexanal
   19    18     1     0     0
SMALL
No Charge or Current Charge


@<TRIPOS>ATOM
      1 C1         -0.6590   -0.8240    2.6570 c3        1 MOL     -0.092300
      2 C2         -0.0530    0.2130    1.7260 c3        1 MOL     -0.080000
      3 C3         -0.3080   -0.1340    0.2590 c3        1 MOL     -0.078200
      4 C4          0.3050    0.9150   -0.6740 c3        1 MOL     -0.075500
      5 C5          0.0670    0.5950   -2.1480 c3        1 MOL     -0.196200
      6 C6          0.6580    1.6090   -3.1000 c         1 MOL      0.563000
      7 O1          1.2800    2.6100   -2.7620 o         1 MOL     -0.524100
      8 H1         -0.4650   -0.5560    3.7000 hc        1 MOL      0.033300
      9 H2         -0.2300   -1.8140    2.4750 hc        1 MOL      0.033300
     10 H3         -1.7430   -0.8890    2.5200 hc        1 MOL      0.033300
     11 H4          1.0260    0.2750    1.9110 hc        1 MOL      0.040800
     12 H5         -0.4790    1.1960    1.9560 hc        1 MOL      0.040800
     13 H6         -1.3890   -0.1960    0.0800 hc        1 MOL      0.037200
     14 H7          0.1100   -1.1240    0.0420 hc        1 MOL      0.037200
     15 H8          1.3800    1.0080   -0.4750 hc        1 MOL      0.053300
     16 H9         -0.1470    1.8890   -0.4540 hc        1 MOL      0.053300
     17 H10         0.4740   -0.3890   -2.4030 hc        1 MOL      0.066200
     18 H11        -1.0110    0.5730   -2.3450 hc        1 MOL      0.066200
     19 H12         0.4750    1.4020   -4.1680 h4        1 MOL     -0.011600
@<TRIPOS>BOND
     1    1    2 1   
     2    2    3 1   
     3    3    4 1   
     4    4    5 1   
     5    5    6 1   
     6    6    7 2   
     7    1    8 1   
     8    1    9 1   
     9    1   10 1   
    10    2   11 1   
    11    2   12 1   
    12    3   13 1   
    13    3   14 1   
    14    4   15 1   
    15    4   16 1   
    16    5   17 1   
    17    5   18 1   
    18    6   19 1   
@<TRIPOS>SUBSTRUCTURE
     1 MOL         1 TEMP              0 ****  ****    0 ROOT
