@<TRIPOS>MOLECULE
1,2,3-trichlorobenzene
   12    12     1     0     0
SMALL
No Charge or Current Charge


@<TRIPOS>ATOM
      1 C1          1.8850   -1.0360   -0.1120 ca        1 MOL     -0.113600
      2 C2          2.9210   -1.6310    0.6080 ca        1 MOL     -0.118000
      3 C3          2.8780   -1.6520    2.0020 ca        1 MOL      0.023600
      4 C4          1.8000   -1.0790    2.6760 ca        1 MOL      0.016700
      5 C5          0.7640   -0.4840    1.9550 ca        1 MOL      0.023600
      6 C6          0.8070   -0.4630    0.5610 ca        1 MOL     -0.118000
      7 Cl1        -0.6060    0.2470    2.7200 cl        1 MOL     -0.062700
      8 Cl2         1.7460   -1.1050    4.4130 cl        1 MOL     -0.044700
      9 Cl3         4.1990   -2.4070    2.8270 cl        1 MOL     -0.062700
     10 H1          1.9180   -1.0200   -1.1980 ha        1 MOL      0.146600
     11 H2          3.7530   -2.0730    0.0660 ha        1 MOL      0.154600
     12 H3          0.0080   -0.0040   -0.0170 ha        1 MOL      0.154600
@<TRIPOS>BOND
     1    1    6 ar  
     2    1    2 ar  
     3    2    3 ar  
     4    3    4 ar  
     5    4    5 ar  
     6    5    6 ar  
     7    5    7 1   
     8    4    8 1   
     9    3    9 1   
    10    1   10 1   
    11    2   11 1   
    12    6   12 1   
@<TRIPOS>SUBSTRUCTURE
     1 MOL         1 TEMP              0 ****  ****    0 ROOT
