@<TRIPOS>MOLECULE
(2S,3S,4S,7S,8R)-3,5,6,7,8,9,9-heptachlorotricyclo[BLAH.BLAH.BLAH.BLAH]deca-,5-diene
   22    24     1     0     0
SMALL
No Charge or Current Charge


@<TRIPOS>ATOM
      1 C1          0.8380    1.2940   -1.8440 c2        1 MOL     -0.147400
      2 C2          1.9520    0.5550   -1.8620 c2        1 MOL     -0.161900
      3 C3          1.7400   -0.8440   -1.3750 c3        1 MOL      0.081200
      4 H1          2.4060   -1.0930   -0.5470 h1        1 MOL      0.097600
      5 C4          0.2490   -0.8870   -0.9940 c3        1 MOL     -0.082300
      6 H2         -0.2800   -1.6560   -1.5730 hc        1 MOL      0.110500
      7 C5         -0.3430    0.5280   -1.3420 c3        1 MOL     -0.046800
      8 H3         -1.0890    0.4410   -2.1410 hc        1 MOL      0.102400
      9 C6         -0.9870    0.9760    0.0150 c3        1 MOL      0.083700
     10 C7          0.1300    1.2080    1.0160 c2        1 MOL     -0.023500
     11 C8          0.6500    0.0130    1.3190 c2        1 MOL     -0.040900
     12 C9         -0.1160   -1.0310    0.5270 c3        1 MOL      0.081200
     13 C10        -1.5380   -0.3770    0.5730 c3        1 MOL      0.132300
     14 Cl1        -2.2570   -0.2680    2.2240 cl        1 MOL     -0.090100
     15 Cl2        -2.7700   -1.1680   -0.4620 cl        1 MOL     -0.090100
     16 Cl3        -0.0300   -2.6780    1.1190 cl        1 MOL     -0.071500
     17 Cl4         1.9390   -0.3270    2.3630 cl        1 MOL     -0.006100
     18 Cl5         0.6190    2.7310    1.5700 cl        1 MOL     -0.003400
     19 Cl6        -2.1720    2.2550   -0.1470 cl        1 MOL     -0.075400
     20 Cl7         2.0990   -1.9820   -2.7000 cl        1 MOL     -0.169800
     21 H4          0.7920    2.3280   -2.1560 ha        1 MOL      0.159200
     22 H5          2.9120    0.9330   -2.1860 ha        1 MOL      0.161200
@<TRIPOS>BOND
     1    1    7 1   
     2    1    2 2   
     3    2    3 1   
     4    3    4 1   
     5    3    5 1   
     6    5    6 1   
     7    5   12 1   
     8    5    7 1   
     9    7    8 1   
    10    7    9 1   
    11    9   13 1   
    12    9   10 1   
    13   10   11 2   
    14   11   12 1   
    15   12   13 1   
    16   13   14 1   
    17   13   15 1   
    18   12   16 1   
    19   11   17 1   
    20   10   18 1   
    21    9   19 1   
    22    3   20 1   
    23    1   21 1   
    24    2   22 1   
@<TRIPOS>SUBSTRUCTURE
     1 MOL         1 TEMP              0 ****  ****    0 ROOT
