@<TRIPOS>MOLECULE
1-chlorobutane
   14    13     1     0     0
SMALL
No Charge or Current Charge


@<TRIPOS>ATOM
      1 C1         -0.1170    0.5380    0.9460 c3        1 MOL     -0.092200
      2 C2          0.5890   -0.2070    2.0670 c3        1 MOL     -0.080700
      3 C3          0.4430    0.5210    3.4030 c3        1 MOL     -0.092400
      4 C4          1.1540   -0.2330    4.5190 c3        1 MOL      0.039700
      5 Cl1         0.9730    0.6280    6.0640 cl        1 MOL     -0.201800
      6 H1         -0.0070    0.0100   -0.0070 hc        1 MOL      0.036000
      7 H2         -1.1860    0.6260    1.1640 hc        1 MOL      0.036000
      8 H3          0.2900    1.5480    0.8280 hc        1 MOL      0.036000
      9 H4          1.6510   -0.3130    1.8150 hc        1 MOL      0.040200
     10 H5          0.1720   -1.2180    2.1460 hc        1 MOL      0.040200
     11 H6          0.8580    1.5330    3.3150 hc        1 MOL      0.056100
     12 H7         -0.6220    0.6280    3.6460 hc        1 MOL      0.056100
     13 H8          2.2250   -0.3260    4.3140 h1        1 MOL      0.063500
     14 H9          0.7350   -1.2360    4.6470 h1        1 MOL      0.063500
@<TRIPOS>BOND
     1    1    2 1   
     2    2    3 1   
     3    3    4 1   
     4    4    5 1   
     5    1    6 1   
     6    1    7 1   
     7    1    8 1   
     8    2    9 1   
     9    2   10 1   
    10    3   11 1   
    11    3   12 1   
    12    4   13 1   
    13    4   14 1   
@<TRIPOS>SUBSTRUCTURE
     1 MOL         1 TEMP              0 ****  ****    0 ROOT
