@<TRIPOS>MOLECULE
ethyl
   14    13     1     0     0
SMALL
No Charge or Current Charge


@<TRIPOS>ATOM
      1 C1         -1.8910    1.8640   -3.7230 c3        1 MOL     -0.099800
      2 C2         -2.5900    0.8100   -2.8900 c3        1 MOL      0.135300
      3 O1         -1.9190    0.6900   -1.6320 os        1 MOL     -0.441700
      4 C3         -2.4440   -0.2300   -0.7730 c         1 MOL      0.630700
      5 O2         -3.4150   -0.9440   -0.9800 o         1 MOL     -0.544100
      6 C4         -1.6440   -0.2460    0.4940 c3        1 MOL     -0.151300
      7 H1         -2.3810    1.9810   -4.6940 hc        1 MOL      0.047400
      8 H2         -1.8950    2.8290   -3.2060 hc        1 MOL      0.047400
      9 H3         -0.8430    1.5950   -3.8860 hc        1 MOL      0.047400
     10 H4         -2.5640   -0.1590   -3.3970 h1        1 MOL      0.050700
     11 H5         -3.6310    1.0920   -2.7080 h1        1 MOL      0.050700
     12 H6         -2.0610    0.4720    1.2050 hc        1 MOL      0.075800
     13 H7         -0.5990   -0.0100    0.2770 hc        1 MOL      0.075800
     14 H8         -1.6900   -1.2440    0.9390 hc        1 MOL      0.075800
@<TRIPOS>BOND
     1    1    2 1   
     2    2    3 1   
     3    3    4 1   
     4    4    5 2   
     5    4    6 1   
     6    1    7 1   
     7    1    8 1   
     8    1    9 1   
     9    2   10 1   
    10    2   11 1   
    11    6   12 1   
    12    6   13 1   
    13    6   14 1   
@<TRIPOS>SUBSTRUCTURE
     1 MOL         1 TEMP              0 ****  ****    0 ROOT
