@<TRIPOS>MOLECULE
2-methoxypropane
   15    14     1     0     0
SMALL
No Charge or Current Charge


@<TRIPOS>ATOM
      1 C1          1.0770    0.0500    0.1960 c3        1 MOL     -0.107200
      2 C2          1.3530    0.9190    1.4130 c3        1 MOL      0.135200
      3 C3          2.8430    1.0380    1.6980 c3        1 MOL     -0.107200
      4 O1          0.8120    2.2180    1.1940 os        1 MOL     -0.416600
      5 C4         -0.5870    2.2450    1.4350 c3        1 MOL      0.115900
      6 H1          0.0030   -0.0290    0.0000 hc        1 MOL      0.042900
      7 H2          1.5640    0.4690   -0.6910 hc        1 MOL      0.042900
      8 H3          1.4830   -0.9590    0.3310 hc        1 MOL      0.042900
      9 H4          0.8470    0.4960    2.2870 h1        1 MOL      0.028200
     10 H5          3.0310    1.6650    2.5750 hc        1 MOL      0.042900
     11 H6          3.3610    1.4750    0.8370 hc        1 MOL      0.042900
     12 H7          3.2910    0.0530    1.8680 hc        1 MOL      0.042900
     13 H8         -0.9650    3.2540    1.2580 h1        1 MOL      0.031300
     14 H9         -0.7810    1.9440    2.4660 h1        1 MOL      0.031300
     15 H10        -1.0740    1.5470    0.7530 h1        1 MOL      0.031300
@<TRIPOS>BOND
     1    1    2 1   
     2    2    3 1   
     3    2    4 1   
     4    4    5 1   
     5    1    6 1   
     6    1    7 1   
     7    1    8 1   
     8    2    9 1   
     9    3   10 1   
    10    3   11 1   
    11    3   12 1   
    12    5   13 1   
    13    5   14 1   
    14    5   15 1   
@<TRIPOS>SUBSTRUCTURE
     1 MOL         1 TEMP              0 ****  ****    0 ROOT
