@<TRIPOS>MOLECULE
1-aminoanthracene-9,10-dione
   26    28     1     0     0
SMALL
No Charge or Current Charge


@<TRIPOS>ATOM
      1 C1          1.2900   -1.6870   -0.3520 ca        1 MOL     -0.120200
      2 C2          0.9560   -0.4630    0.2260 ca        1 MOL     -0.118000
      3 C3          1.8480    0.1680    1.0930 ca        1 MOL     -0.088300
      4 C4          3.0810   -0.4280    1.3840 ca        1 MOL     -0.126700
      5 C5          3.4160   -1.6540    0.8060 ca        1 MOL     -0.127200
      6 C6          2.5180   -2.2840   -0.0640 ca        1 MOL     -0.086100
      7 C7          4.7130   -2.2940    1.1040 c         1 MOL      0.582300
      8 O1          5.0080   -3.3690    0.5970 o         1 MOL     -0.525600
      9 C8          5.6520   -1.6180    2.0240 ca        1 MOL     -0.073600
     10 C9          6.8850   -2.2140    2.3150 ca        1 MOL     -0.150700
     11 C10         7.7770   -1.5830    3.1820 ca        1 MOL     -0.062400
     12 C11         7.4420   -0.3590    3.7590 ca        1 MOL     -0.211800
     13 C12         6.2150    0.2380    3.4720 ca        1 MOL      0.260600
     14 C13         5.3170   -0.3920    2.6020 ca        1 MOL     -0.233600
     15 C14         4.0190    0.2480    2.3040 c         1 MOL      0.603300
     16 O2          3.6910    1.3220    2.7910 o         1 MOL     -0.578600
     17 N1          5.9470    1.4790    4.0950 nh        1 MOL     -0.868100
     18 H1          0.5940   -2.1760   -1.0260 ha        1 MOL      0.139100
     19 H2          0.0000    0.0000   -0.0000 ha        1 MOL      0.140500
     20 H3          1.5620    1.1220    1.5280 ha        1 MOL      0.161700
     21 H4          2.7550   -3.2380   -0.5270 ha        1 MOL      0.158400
     22 H5          7.1680   -3.1670    1.8780 ha        1 MOL      0.160100
     23 H6          8.7330   -2.0450    3.4070 ha        1 MOL      0.139300
     24 H7          8.1490    0.1190    4.4330 ha        1 MOL      0.136000
     25 H8          5.0990    1.9580    3.8760 hn        1 MOL      0.444800
     26 H9          6.6510    1.8950    4.6680 hn        1 MOL      0.444800
@<TRIPOS>BOND
     1    1    6 ar  
     2    1    2 ar  
     3    2    3 ar  
     4    3    4 ar  
     5    4   15 1   
     6    4    5 ar  
     7    5    6 ar  
     8    5    7 1   
     9    7    8 2   
    10    7    9 1   
    11    9   14 ar  
    12    9   10 ar  
    13   10   11 ar  
    14   11   12 ar  
    15   12   13 ar  
    16   13   14 ar  
    17   14   15 1   
    18   15   16 2   
    19   13   17 1   
    20    1   18 1   
    21    2   19 1   
    22    3   20 1   
    23    6   21 1   
    24   10   22 1   
    25   11   23 1   
    26   12   24 1   
    27   17   25 1   
    28   17   26 1   
@<TRIPOS>SUBSTRUCTURE
     1 MOL         1 TEMP              0 ****  ****    0 ROOT
