@<TRIPOS>MOLECULE
1,1,1-trifluoro-2,2,2-trimethoxy-ethane
   20    19     1     0     0
SMALL
No Charge or Current Charge


@<TRIPOS>ATOM
      1 C1          1.2810    0.6400   -1.6560 c3        1 MOL      0.124100
      2 O1          0.2070   -0.1190   -1.1210 os        1 MOL     -0.428800
      3 C2         -0.0260    0.0280    0.2910 c3        1 MOL      0.504800
      4 C3          1.1980   -0.3900    1.1150 c3        1 MOL      0.615600
      5 F1          2.2740    0.3660    0.7990 f         1 MOL     -0.226600
      6 F2          1.5390   -1.6790    0.8860 f         1 MOL     -0.226600
      7 F3          0.9810   -0.2610    2.4420 f         1 MOL     -0.226600
      8 O2         -0.2740    1.4050    0.6570 os        1 MOL     -0.428800
      9 C4         -1.4070    1.9750    0.0130 c3        1 MOL      0.124100
     10 O3         -1.1600   -0.7690    0.7000 os        1 MOL     -0.428800
     11 C5         -1.2620   -2.0520    0.1000 c3        1 MOL      0.124100
     12 H1          1.3630    0.4500   -2.7290 h1        1 MOL      0.052600
     13 H2          2.2110    0.3620   -1.1540 h1        1 MOL      0.052600
     14 H3          1.0820    1.7020   -1.4910 h1        1 MOL      0.052600
     15 H4         -1.5230    3.0080    0.3410 h1        1 MOL      0.052600
     16 H5         -2.2940    1.3930    0.2680 h1        1 MOL      0.052600
     17 H6         -1.2470    1.9470   -1.0650 h1        1 MOL      0.052600
     18 H7         -2.1500   -2.5590    0.4810 h1        1 MOL      0.052600
     19 H8         -0.3660   -2.6310    0.3330 h1        1 MOL      0.052600
     20 H9         -1.3470   -1.9280   -0.9810 h1        1 MOL      0.052600
@<TRIPOS>BOND
     1    1    2 1   
     2    2    3 1   
     3    3    4 1   
     4    4    5 1   
     5    4    6 1   
     6    4    7 1   
     7    3    8 1   
     8    8    9 1   
     9    3   10 1   
    10   10   11 1   
    11    1   12 1   
    12    1   13 1   
    13    1   14 1   
    14    9   15 1   
    15    9   16 1   
    16    9   17 1   
    17   11   18 1   
    18   11   19 1   
    19   11   20 1   
@<TRIPOS>SUBSTRUCTURE
     1 MOL         1 TEMP              0 ****  ****    0 ROOT
