@<TRIPOS>MOLECULE
phenanthrene
   24    26     1     0     0
SMALL
No Charge or Current Charge


@<TRIPOS>ATOM
      1 C1         -6.1100   -1.6950   -5.2170 ca        1 MOL     -0.127300
      2 C2         -5.3790   -2.7590   -4.7130 ca        1 MOL     -0.128100
      3 C3         -4.3280   -2.5250   -3.8220 ca        1 MOL     -0.118100
      4 C4         -3.9710   -1.2190   -3.4030 ca        1 MOL     -0.017400
      5 C5         -4.7370   -0.1480   -3.9340 ca        1 MOL     -0.036800
      6 C6         -5.7910   -0.3970   -4.8290 ca        1 MOL     -0.118600
      7 C7         -4.4440    1.1680   -3.5670 ca        1 MOL     -0.117000
      8 C8         -3.4070    1.4480   -2.6820 ca        1 MOL     -0.117000
      9 C9         -2.6320    0.4210   -2.1380 ca        1 MOL     -0.036800
     10 C10        -2.8980   -0.9290   -2.4870 ca        1 MOL     -0.017400
     11 C11        -2.0700   -1.9150   -1.8950 ca        1 MOL     -0.118100
     12 C12        -1.0390   -1.5870   -1.0100 ca        1 MOL     -0.128100
     13 C13        -0.8000   -0.2600   -0.6870 ca        1 MOL     -0.127100
     14 C14        -1.5910    0.7370   -1.2480 ca        1 MOL     -0.118600
     15 H1         -6.9280   -1.8710   -5.9100 ha        1 MOL      0.132900
     16 H2         -5.6210   -3.7750   -5.0100 ha        1 MOL      0.132800
     17 H3         -3.7900   -3.3970   -3.4610 ha        1 MOL      0.131300
     18 H4         -6.3770    0.4250   -5.2360 ha        1 MOL      0.132900
     19 H5         -5.0220    1.9990   -3.9660 ha        1 MOL      0.133200
     20 H6         -3.2120    2.4880   -2.4240 ha        1 MOL      0.133200
     21 H7         -2.2110   -2.9710   -2.1110 ha        1 MOL      0.131300
     22 H8         -0.4260   -2.3720   -0.5770 ha        1 MOL      0.132800
     23 H9          0.0000    0.0000   -0.0010 ha        1 MOL      0.132900
     24 H10        -1.3870    1.7730   -0.9810 ha        1 MOL      0.132900
@<TRIPOS>BOND
     1    1    6 ar  
     2    1    2 ar  
     3    2    3 ar  
     4    3    4 ar  
     5    4   10 ar  
     6    4    5 ar  
     7    5    6 ar  
     8    5    7 ar  
     9    7    8 ar  
    10    8    9 ar  
    11    9   14 ar  
    12    9   10 ar  
    13   10   11 ar  
    14   11   12 ar  
    15   12   13 ar  
    16   13   14 ar  
    17    1   15 1   
    18    2   16 1   
    19    3   17 1   
    20    6   18 1   
    21    7   19 1   
    22    8   20 1   
    23   11   21 1   
    24   12   22 1   
    25   13   23 1   
    26   14   24 1   
@<TRIPOS>SUBSTRUCTURE
     1 MOL         1 TEMP              0 ****  ****    0 ROOT
