@<TRIPOS>MOLECULE
piperidine
   17    17     1     0     0
SMALL
No Charge or Current Charge


@<TRIPOS>ATOM
      1 C1          0.5790    0.0380   -1.3660 c3        1 MOL     -0.076900
      2 C2          0.4800    1.2870   -0.4950 c3        1 MOL     -0.076300
      3 C3         -0.6600    1.1690    0.5140 c3        1 MOL      0.160300
      4 N1         -0.5270   -0.0350    1.3350 n3        1 MOL     -0.813700
      5 C4         -0.5080   -1.2440    0.5110 c3        1 MOL      0.160300
      6 C5          0.6370   -1.2160   -0.4990 c3        1 MOL     -0.076300
      7 H1          1.4660    0.0950   -2.0060 hc        1 MOL      0.038700
      8 H2         -0.2940   -0.0150   -2.0280 hc        1 MOL      0.038700
      9 H3          1.4280    1.4380    0.0360 hc        1 MOL      0.045900
     10 H4          0.3250    2.1680   -1.1280 hc        1 MOL      0.045900
     11 H5         -0.6600    2.0470    1.1700 h1        1 MOL      0.025800
     12 H6         -1.6280    1.1630   -0.0020 h1        1 MOL      0.025800
     13 H7         -1.3190   -0.0860    1.9770 hn        1 MOL      0.358700
     14 H8         -0.3980   -2.1170    1.1640 h1        1 MOL      0.025800
     15 H9         -1.4690   -1.3580   -0.0050 h1        1 MOL      0.025800
     16 H10         1.5970   -1.2480    0.0320 hc        1 MOL      0.045900
     17 H11         0.5930   -2.1070   -1.1350 hc        1 MOL      0.045900
@<TRIPOS>BOND
     1    1    6 1   
     2    1    2 1   
     3    2    3 1   
     4    3    4 1   
     5    4    5 1   
     6    5    6 1   
     7    1    7 1   
     8    1    8 1   
     9    2    9 1   
    10    2   10 1   
    11    3   11 1   
    12    3   12 1   
    13    4   13 1   
    14    5   14 1   
    15    5   15 1   
    16    6   16 1   
    17    6   17 1   
@<TRIPOS>SUBSTRUCTURE
     1 MOL         1 TEMP              0 ****  ****    0 ROOT
