@<TRIPOS>MOLECULE
4-hydroxybenzonitrile
   14    14     1     0     0
SMALL
No Charge or Current Charge


@<TRIPOS>ATOM
      1 C1          1.8850   -1.0360   -0.1120 ca        1 MOL     -0.053000
      2 C2          2.9210   -1.6310    0.6080 ca        1 MOL     -0.192500
      3 C3          2.8780   -1.6520    2.0020 ca        1 MOL      0.149100
      4 C4          1.8000   -1.0790    2.6760 ca        1 MOL     -0.192500
      5 C5          0.7640   -0.4840    1.9550 ca        1 MOL     -0.053000
      6 C6          0.8070   -0.4630    0.5610 ca        1 MOL     -0.058400
      7 C7         -0.2550    0.1460   -0.1770 cg        1 MOL      0.237300
      8 N1         -1.1180    0.6410   -0.7770 n1        1 MOL     -0.368100
      9 O1          3.8890   -2.2320    2.7050 oh        1 MOL     -0.490700
     10 H1          1.9320   -1.0280   -1.1990 ha        1 MOL      0.148000
     11 H2          3.7580   -2.0770    0.0780 ha        1 MOL      0.150300
     12 H3          1.7610   -1.0920    3.7610 ha        1 MOL      0.150300
     13 H4         -0.0700   -0.0410    2.4940 ha        1 MOL      0.148000
     14 H5          3.7160   -2.1670    3.6580 ho        1 MOL      0.425100
@<TRIPOS>BOND
     1    1    6 ar  
     2    1    2 ar  
     3    2    3 ar  
     4    3    4 ar  
     5    4    5 ar  
     6    5    6 ar  
     7    6    7 1   
     8    7    8 3   
     9    3    9 1   
    10    1   10 1   
    11    2   11 1   
    12    4   12 1   
    13    5   13 1   
    14    9   14 1   
@<TRIPOS>SUBSTRUCTURE
     1 MOL         1 TEMP              0 ****  ****    0 ROOT
