@<TRIPOS>MOLECULE
1,2,3,4-tetrachloro-5-(2,3,4,6-tetrachlorophenyl)benzene
   22    23     1     0     0
SMALL
No Charge or Current Charge


@<TRIPOS>ATOM
      1 C1          1.8850   -1.0360   -0.1120 ca        1 MOL     -0.084900
      2 C2          2.9210   -1.6310    0.6080 cp        1 MOL     -0.028900
      3 C3          2.8780   -1.6520    2.0020 ca        1 MOL      0.047100
      4 C4          1.8000   -1.0790    2.6760 ca        1 MOL      0.018500
      5 C5          0.7640   -0.4840    1.9550 ca        1 MOL      0.031200
      6 C6          0.8070   -0.4630    0.5610 ca        1 MOL      0.018100
      7 Cl1        -0.4400    0.2530   -0.4030 cl        1 MOL     -0.050600
      8 Cl2        -0.5890    0.2360    2.7820 cl        1 MOL     -0.033700
      9 Cl3         1.7480   -1.1070    4.4170 cl        1 MOL     -0.034500
     10 Cl4         4.1840   -2.3980    2.8820 cl        1 MOL     -0.040200
     11 C7          4.0190   -2.2130   -0.1430 cp        1 MOL     -0.034800
     12 C8          3.9520   -3.5500   -0.5340 ca        1 MOL      0.048100
     13 C9          5.0010   -4.1190   -1.2570 ca        1 MOL     -0.119200
     14 C10         6.1160   -3.3500   -1.5890 ca        1 MOL      0.037900
     15 C11         6.1830   -2.0130   -1.1980 ca        1 MOL      0.009900
     16 C12         5.1340   -1.4440   -0.4750 ca        1 MOL      0.049300
     17 Cl5         5.2090    0.2250    0.0210 cl        1 MOL     -0.036900
     18 Cl6         7.5800   -1.0640   -1.6190 cl        1 MOL     -0.033600
     19 Cl7         7.3770   -4.1260   -2.4870 cl        1 MOL     -0.047400
     20 Cl8         2.5970   -4.5590   -0.1560 cl        1 MOL     -0.053500
     21 H1          1.9190   -1.0200   -1.2010 ha        1 MOL      0.166400
     22 H2          4.9480   -5.1620   -1.5620 ha        1 MOL      0.171800
@<TRIPOS>BOND
     1    1    6 ar  
     2    1    2 ar  
     3    2    3 ar  
     4    3    4 ar  
     5    4    5 ar  
     6    5    6 ar  
     7    6    7 1   
     8    5    8 1   
     9    4    9 1   
    10    3   10 1   
    11    2   11 1   
    12   11   16 ar  
    13   11   12 ar  
    14   12   13 ar  
    15   13   14 ar  
    16   14   15 ar  
    17   15   16 ar  
    18   16   17 1   
    19   15   18 1   
    20   14   19 1   
    21   12   20 1   
    22    1   21 1   
    23   13   22 1   
@<TRIPOS>SUBSTRUCTURE
     1 MOL         1 TEMP              0 ****  ****    0 ROOT
