@<TRIPOS>MOLECULE
2-chloropyridine
   11    11     1     0     0
SMALL
No Charge or Current Charge


@<TRIPOS>ATOM
      1 C1          1.3880   -0.0680    1.6520 ca        1 MOL     -0.087100
      2 C2          0.2270   -0.4200    0.9730 ca        1 MOL     -0.246600
      3 C3         -0.6320   -1.3220    1.5800 ca        1 MOL      0.407700
      4 N1         -0.4090   -1.8820    2.7910 nb        1 MOL     -0.654900
      5 C4          0.7300   -1.5160    3.4210 ca        1 MOL      0.489400
      6 C5          1.6520   -0.6230    2.9000 ca        1 MOL     -0.235100
      7 Cl1         0.9730   -2.2490    4.9530 cl        1 MOL     -0.151900
      8 H1          2.0860    0.6370    1.2100 ha        1 MOL      0.142800
      9 H2         -0.0000    0.0010    0.0000 ha        1 MOL      0.148900
     10 H3         -1.5510   -1.6290    1.0920 h4        1 MOL      0.029400
     11 H4          2.5550   -0.3540    3.4380 ha        1 MOL      0.157500
@<TRIPOS>BOND
     1    1    6 ar  
     2    1    2 ar  
     3    2    3 ar  
     4    3    4 ar  
     5    4    5 ar  
     6    5    6 ar  
     7    5    7 1   
     8    1    8 1   
     9    2    9 1   
    10    3   10 1   
    11    6   11 1   
@<TRIPOS>SUBSTRUCTURE
     1 MOL         1 TEMP              0 ****  ****    0 ROOT
