@<TRIPOS>MOLECULE
2-chloro-1,1,1-trifluoro-ethane
    8     7     1     0     0
SMALL
No Charge or Current Charge


@<TRIPOS>ATOM
      1 C1         -0.0170    0.7150   -0.2710 c3        1 MOL     -0.029700
      2 C2          0.0300   -0.7410    0.1200 c3        1 MOL      0.624900
      3 F1         -1.0940   -1.1170    0.7660 f         1 MOL     -0.229700
      4 F2          1.0850   -1.0060    0.9200 f         1 MOL     -0.229700
      5 F3          0.1470   -1.5190   -0.9800 f         1 MOL     -0.229700
      6 Cl1        -0.1860    1.7500    1.1630 cl        1 MOL     -0.112600
      7 H1          0.9010    1.0060   -0.7890 h1        1 MOL      0.103300
      8 H2         -0.8670    0.9120   -0.9300 h1        1 MOL      0.103300
@<TRIPOS>BOND
     1    1    2 1   
     2    2    3 1   
     3    2    4 1   
     4    2    5 1   
     5    1    6 1   
     6    1    7 1   
     7    1    8 1   
@<TRIPOS>SUBSTRUCTURE
     1 MOL         1 TEMP              0 ****  ****    0 ROOT
