@<TRIPOS>MOLECULE
[(Z)-(2-methyl-2-methylsulfanyl-propylidene)amino]
   26    25     1     0     0
SMALL
No Charge or Current Charge


@<TRIPOS>ATOM
      1 C1          0.7670    0.3740    0.6880 c3        1 MOL     -0.093100
      2 C2          2.1340    0.4190    0.0040 c3        1 MOL     -0.024400
      3 C3          2.1060    1.3690   -1.1950 c3        1 MOL     -0.093100
      4 C4          2.6040   -0.9450   -0.4690 c2        1 MOL      0.383300
      5 N1          1.9360   -1.6470   -1.3250 n2        1 MOL     -0.363400
      6 O1          0.7850   -0.9340   -1.6880 os        1 MOL     -0.254400
      7 C5          0.0740   -1.6730   -2.5940 c         1 MOL      0.763600
      8 O2          0.4010   -2.7790   -3.0130 o         1 MOL     -0.526100
      9 N2         -1.0620   -0.9810   -2.9610 n         1 MOL     -0.565200
     10 C6         -2.0330   -1.4800   -3.9080 c3        1 MOL      0.092900
     11 S1          3.3860    1.0050    1.2060 ss        1 MOL     -0.311600
     12 C7          2.6530    2.6160    1.5590 c3        1 MOL     -0.029500
     13 H1          0.7860   -0.3060    1.5480 hc        1 MOL      0.049700
     14 H2          0.4650    1.3580    1.0680 hc        1 MOL      0.049700
     15 H3         -0.0160    0.0180    0.0090 hc        1 MOL      0.049700
     16 H4          3.0760    1.4180   -1.7030 hc        1 MOL      0.049700
     17 H5          1.8210    2.3870   -0.9020 hc        1 MOL      0.049700
     18 H6          1.3780    1.0270   -1.9400 hc        1 MOL      0.049700
     19 H7          3.5510   -1.3240   -0.0400 h4        1 MOL      0.058100
     20 H8         -1.2240   -0.0700   -2.5430 hn        1 MOL      0.328600
     21 H9         -2.7990   -2.0510   -3.3830 h1        1 MOL      0.047900
     22 H10        -1.5420   -2.1250   -4.6370 h1        1 MOL      0.047900
     23 H11        -2.5030   -0.6450   -4.4300 h1        1 MOL      0.047900
     24 H12         3.2690    3.1530    2.2850 h1        1 MOL      0.064200
     25 H13         1.6500    2.4850    1.9700 h1        1 MOL      0.064200
     26 H14         2.5900    3.2030    0.6400 h1        1 MOL      0.064200
@<TRIPOS>BOND
     1    1    2 1   
     2    2    3 1   
     3    2    4 1   
     4    4    5 2   
     5    5    6 1   
     6    6    7 1   
     7    7    8 2   
     8    7    9 1   
     9    9   10 1   
    10    2   11 1   
    11   11   12 1   
    12    1   13 1   
    13    1   14 1   
    14    1   15 1   
    15    3   16 1   
    16    3   17 1   
    17    3   18 1   
    18    4   19 1   
    19    9   20 1   
    20   10   21 1   
    21   10   22 1   
    22   10   23 1   
    23   12   24 1   
    24   12   25 1   
    25   12   26 1   
@<TRIPOS>SUBSTRUCTURE
     1 MOL         1 TEMP              0 ****  ****    0 ROOT
