@<TRIPOS>MOLECULE
1,2,3,4,5,6-hexachlorobenzene
   12    12     1     0     0
SMALL
No Charge or Current Charge


@<TRIPOS>ATOM
      1 C1          1.8850   -1.0360   -0.1120 ca        1 MOL      0.026100
      2 C2          2.9210   -1.6310    0.6080 ca        1 MOL      0.026200
      3 C3          2.8780   -1.6520    2.0020 ca        1 MOL      0.026200
      4 C4          1.8000   -1.0790    2.6760 ca        1 MOL      0.026200
      5 C5          0.7640   -0.4840    1.9550 ca        1 MOL      0.026200
      6 C6          0.8070   -0.4630    0.5610 ca        1 MOL      0.026200
      7 Cl1        -0.4880    0.2800   -0.3400 cl        1 MOL     -0.026200
      8 Cl2        -0.5850    0.2320    2.7970 cl        1 MOL     -0.026200
      9 Cl3         1.7460   -1.1050    4.4180 cl        1 MOL     -0.026200
     10 Cl4         4.1730   -2.3960    2.9030 cl        1 MOL     -0.026200
     11 Cl5         4.2690   -2.3480   -0.2340 cl        1 MOL     -0.026200
     12 Cl6         1.9390   -1.0100   -1.8550 cl        1 MOL     -0.026200
@<TRIPOS>BOND
     1    1    6 ar  
     2    1    2 ar  
     3    2    3 ar  
     4    3    4 ar  
     5    4    5 ar  
     6    5    6 ar  
     7    6    7 1   
     8    5    8 1   
     9    4    9 1   
    10    3   10 1   
    11    2   11 1   
    12    1   12 1   
@<TRIPOS>SUBSTRUCTURE
     1 MOL         1 TEMP              0 ****  ****    0 ROOT
