@<TRIPOS>MOLECULE
2,6-dimethylnaphthalene
   24    25     1     0     0
SMALL
No Charge or Current Charge


@<TRIPOS>ATOM
      1 C1         -1.8840   -1.7020    0.9270 c3        1 MOL     -0.053900
      2 C2         -0.4970   -2.0340    0.4940 ca        1 MOL     -0.076900
      3 C3          0.3500   -1.0280    0.0390 ca        1 MOL     -0.123600
      4 C4          1.6480   -1.3370   -0.3660 ca        1 MOL     -0.116300
      5 C5          2.1170   -2.6600   -0.3220 ca        1 MOL     -0.035500
      6 C6          3.4210   -2.9900   -0.7270 ca        1 MOL     -0.120700
      7 C7          3.8690   -4.3100   -0.6760 ca        1 MOL     -0.076900
      8 C8          3.0230   -5.3170   -0.2210 ca        1 MOL     -0.123600
      9 C9          1.7240   -5.0070    0.1850 ca        1 MOL     -0.116300
     10 C10         1.2560   -3.6840    0.1400 ca        1 MOL     -0.035500
     11 C11        -0.0480   -3.3540    0.5450 ca        1 MOL     -0.120700
     12 C12         5.2570   -4.6430   -1.1090 c3        1 MOL     -0.053800
     13 H1         -1.8970   -1.4670    1.9960 hc        1 MOL      0.044200
     14 H2         -2.2720   -0.8410    0.3710 hc        1 MOL      0.044200
     15 H3         -2.5640   -2.5400    0.7410 hc        1 MOL      0.044200
     16 H4          0.0090    0.0040   -0.0020 ha        1 MOL      0.131800
     17 H5          2.2920   -0.5340   -0.7190 ha        1 MOL      0.131300
     18 H6          4.0930   -2.2120   -1.0850 ha        1 MOL      0.131100
     19 H7          3.3650   -6.3470   -0.1780 ha        1 MOL      0.131800
     20 H8          1.0800   -5.8100    0.5360 ha        1 MOL      0.131300
     21 H9         -0.7200   -4.1320    0.9030 ha        1 MOL      0.131100
     22 H10         5.9480   -4.5770   -0.2600 hc        1 MOL      0.044200
     23 H11         5.3120   -5.6570   -1.5250 hc        1 MOL      0.044200
     24 H12         5.6040   -3.9580   -1.8940 hc        1 MOL      0.044200
@<TRIPOS>BOND
     1    1    2 1   
     2    2   11 ar  
     3    2    3 ar  
     4    3    4 ar  
     5    4    5 ar  
     6    5   10 ar  
     7    5    6 ar  
     8    6    7 ar  
     9    7    8 ar  
    10    8    9 ar  
    11    9   10 ar  
    12   10   11 ar  
    13    7   12 1   
    14    1   13 1   
    15    1   14 1   
    16    1   15 1   
    17    3   16 1   
    18    4   17 1   
    19    6   18 1   
    20    8   19 1   
    21    9   20 1   
    22   11   21 1   
    23   12   22 1   
    24   12   23 1   
    25   12   24 1   
@<TRIPOS>SUBSTRUCTURE
     1 MOL         1 TEMP              0 ****  ****    0 ROOT
