@<TRIPOS>MOLECULE
2,2-dichloro-1,1-difluoro-1-methoxy-ethane
   12    11     1     0     0
SMALL
No Charge or Current Charge


@<TRIPOS>ATOM
      1 C1         -1.0890    0.3390   -1.5860 c3        1 MOL      0.109100
      2 O1          0.0820    0.4880   -0.7960 os        1 MOL     -0.438900
      3 C2          0.0410   -0.2870    0.3990 c3        1 MOL      0.578700
      4 C3          1.3130   -0.0930    1.2060 c3        1 MOL      0.114600
      5 Cl1         1.5260    1.6170    1.6620 cl        1 MOL     -0.099400
      6 Cl2         1.2790   -1.0960    2.6790 cl        1 MOL     -0.099400
      7 F1         -1.0500    0.0610    1.1230 f         1 MOL     -0.230500
      8 F2         -0.0930   -1.5930    0.0560 f         1 MOL     -0.230500
      9 H1         -1.0030    0.9520   -2.4860 h1        1 MOL      0.056600
     10 H2         -1.9630    0.6450   -1.0050 h1        1 MOL      0.056600
     11 H3         -1.1940   -0.7110   -1.8720 h1        1 MOL      0.056600
     12 H4          2.1910   -0.3890    0.6250 h2        1 MOL      0.126600
@<TRIPOS>BOND
     1    1    2 1   
     2    2    3 1   
     3    3    4 1   
     4    4    5 1   
     5    4    6 1   
     6    3    7 1   
     7    3    8 1   
     8    1    9 1   
     9    1   10 1   
    10    1   11 1   
    11    4   12 1   
@<TRIPOS>SUBSTRUCTURE
     1 MOL         1 TEMP              0 ****  ****    0 ROOT
