@<TRIPOS>MOLECULE
diethoxy-(ethylsulfanylmethylsulfanyl)-thioxo-$l^{5}-phosphane
   30    29     1     0     0
SMALL
No Charge or Current Charge


@<TRIPOS>ATOM
      1 C1         -2.0250    2.2460   -2.1270 c3        1 MOL     -0.095700
      2 C2         -0.6380    2.2760   -1.5200 c3        1 MOL      0.135800
      3 O1         -0.6840    1.6830   -0.2330 os        1 MOL     -0.482100
      4 P1          0.6720    1.5720    0.6710 p5        1 MOL      0.842700
      5 S1          1.4880    3.3080    1.0820 s         1 MOL     -0.487300
      6 O2          0.0610    0.8350    1.9970 os        1 MOL     -0.482100
      7 C3         -0.9710    1.4460    2.7540 c3        1 MOL      0.135800
      8 C4         -1.3350    0.5430    3.9130 c3        1 MOL     -0.095700
      9 S2          1.9070    0.0990   -0.2400 ss        1 MOL     -0.345000
     10 C5          0.9250   -1.4220   -0.2150 c3        1 MOL      0.157300
     11 S3          1.8390   -2.7970   -0.9630 ss        1 MOL     -0.203300
     12 C6          0.5910   -4.0900   -0.7650 c3        1 MOL     -0.028300
     13 C7          1.0910   -5.4110   -1.3220 c3        1 MOL     -0.084000
     14 H1         -2.0250    2.6970   -3.1230 hc        1 MOL      0.056800
     15 H2         -2.3890    1.2170   -2.2050 hc        1 MOL      0.056800
     16 H3         -2.7350    2.7880   -1.4940 hc        1 MOL      0.056800
     17 H4         -0.2850    3.3070   -1.4210 h1        1 MOL      0.064200
     18 H5          0.0660    1.7150   -2.1420 h1        1 MOL      0.064200
     19 H6         -0.6150    2.4150    3.1200 h1        1 MOL      0.064200
     20 H7         -1.8380    1.6070    2.1060 h1        1 MOL      0.064200
     21 H8         -2.1300    0.9860    4.5190 hc        1 MOL      0.056800
     22 H9         -1.6700   -0.4340    3.5500 hc        1 MOL      0.056800
     23 H10        -0.4630    0.3640    4.5510 hc        1 MOL      0.056800
     24 H11        -0.0000   -1.2530   -0.7710 h2        1 MOL      0.086300
     25 H12         0.6810   -1.6660    0.8220 h2        1 MOL      0.086300
     26 H13         0.3530   -4.1970    0.3000 h1        1 MOL      0.059100
     27 H14        -0.3250   -3.7850   -1.2850 h1        1 MOL      0.059100
     28 H15         0.3430   -6.2030   -1.2080 hc        1 MOL      0.047900
     29 H16         1.3490   -5.3260   -2.3830 hc        1 MOL      0.047900
     30 H17         1.9920   -5.7280   -0.7860 hc        1 MOL      0.047900
@<TRIPOS>BOND
     1    1    2 1   
     2    2    3 1   
     3    3    4 1   
     4    4    5 2   
     5    4    6 1   
     6    6    7 1   
     7    7    8 1   
     8    4    9 1   
     9    9   10 1   
    10   10   11 1   
    11   11   12 1   
    12   12   13 1   
    13    1   14 1   
    14    1   15 1   
    15    1   16 1   
    16    2   17 1   
    17    2   18 1   
    18    7   19 1   
    19    7   20 1   
    20    8   21 1   
    21    8   22 1   
    22    8   23 1   
    23   10   24 1   
    24   10   25 1   
    25   12   26 1   
    26   12   27 1   
    27   13   28 1   
    28   13   29 1   
    29   13   30 1   
@<TRIPOS>SUBSTRUCTURE
     1 MOL         1 TEMP              0 ****  ****    0 ROOT
