@<TRIPOS>MOLECULE
2-chloroaniline
   14    14     1     0     0
SMALL
No Charge or Current Charge


@<TRIPOS>ATOM
      1 C1          1.8850   -1.0360   -0.1120 ca        1 MOL     -0.087700
      2 C2          2.9210   -1.6310    0.6080 ca        1 MOL     -0.170500
      3 C3          2.8780   -1.6520    2.0020 ca        1 MOL     -0.083100
      4 C4          1.8000   -1.0790    2.6760 ca        1 MOL     -0.051000
      5 C5          0.7640   -0.4840    1.9550 ca        1 MOL      0.158700
      6 C6          0.8070   -0.4630    0.5610 ca        1 MOL     -0.190400
      7 N1         -0.3420    0.1050    2.6090 nh        1 MOL     -0.822100
      8 Cl1         1.7870   -1.1260    4.4020 cl        1 MOL     -0.105300
      9 H1          1.9190   -1.0190   -1.1980 ha        1 MOL      0.134100
     10 H2          3.7600   -2.0780    0.0830 ha        1 MOL      0.135800
     11 H3          3.6940   -2.1190    2.5490 ha        1 MOL      0.145200
     12 H4          0.0050   -0.0030   -0.0120 ha        1 MOL      0.134800
     13 H5         -0.4020    0.0520    3.6040 hn        1 MOL      0.400800
     14 H6         -1.0870    0.4790    2.0590 hn        1 MOL      0.400800
@<TRIPOS>BOND
     1    1    6 ar  
     2    1    2 ar  
     3    2    3 ar  
     4    3    4 ar  
     5    4    5 ar  
     6    5    6 ar  
     7    5    7 1   
     8    4    8 1   
     9    1    9 1   
    10    2   10 1   
    11    3   11 1   
    12    6   12 1   
    13    7   13 1   
    14    7   14 1   
@<TRIPOS>SUBSTRUCTURE
     1 MOL         1 TEMP              0 ****  ****    0 ROOT
