@<TRIPOS>MOLECULE
1,1,2,3,3,3-hexafluoroprop-1-ene
    9     8     1     0     0
SMALL
No Charge or Current Charge


@<TRIPOS>ATOM
      1 C1          0.2300    0.0260    0.4910 c2        1 MOL     -0.055200
      2 C2         -0.9360   -0.4460    0.9410 c2        1 MOL      0.379200
      3 F1         -1.1320   -0.6690    2.2570 f         1 MOL     -0.128600
      4 F2         -1.9320   -0.7030    0.0670 f         1 MOL     -0.128600
      5 C3          0.5480    0.3050   -0.9340 c3        1 MOL      0.694100
      6 F3          1.8040    0.7800   -1.1290 f         1 MOL     -0.216000
      7 F4          0.4300   -0.8130   -1.6940 f         1 MOL     -0.216000
      8 F5         -0.3030    1.2240   -1.4570 f         1 MOL     -0.216000
      9 F6          1.2000    0.2690    1.4040 f         1 MOL     -0.112900
@<TRIPOS>BOND
     1    1    2 2   
     2    2    3 1   
     3    2    4 1   
     4    1    5 1   
     5    5    6 1   
     6    5    7 1   
     7    5    8 1   
     8    1    9 1   
@<TRIPOS>SUBSTRUCTURE
     1 MOL         1 TEMP              0 ****  ****    0 ROOT
