@<TRIPOS>MOLECULE
triethyl
   26    25     1     0     0
SMALL
No Charge or Current Charge


@<TRIPOS>ATOM
      1 C1         -0.3560    0.1900    0.1430 c3        1 MOL     -0.127300
      2 C2          1.0020   -0.2850   -0.3280 c3        1 MOL      0.171200
      3 O1          1.0800   -0.1390   -1.7360 os        1 MOL     -0.576100
      4 P1          2.4480   -0.5830   -2.4830 p5        1 MOL      1.611700
      5 O2          2.8150   -2.0290   -2.3080 o         1 MOL     -0.801600
      6 O3          2.1850   -0.1340   -4.0170 os        1 MOL     -0.576100
      7 C3          3.2020   -0.3770   -4.9750 c3        1 MOL      0.171200
      8 C4          2.7380    0.1230   -6.3270 c3        1 MOL     -0.127300
      9 O4          3.5620    0.4610   -1.9410 os        1 MOL     -0.576100
     10 C5          3.4020    1.8520   -2.1600 c3        1 MOL      0.171200
     11 C6          4.5780    2.5880   -1.5540 c3        1 MOL     -0.127300
     12 H1         -0.4500    0.0910    1.2280 hc        1 MOL      0.050200
     13 H2         -0.5140    1.2390   -0.1310 hc        1 MOL      0.050200
     14 H3         -1.1540   -0.3870   -0.3360 hc        1 MOL      0.050200
     15 H4          1.1490   -1.3390   -0.0750 h1        1 MOL      0.055900
     16 H5          1.7980    0.3080    0.1330 h1        1 MOL      0.055900
     17 H6          4.1130    0.1470   -4.6660 h1        1 MOL      0.055900
     18 H7          3.4040   -1.4520   -5.0130 h1        1 MOL      0.055900
     19 H8          3.5010   -0.0500   -7.0910 hc        1 MOL      0.050200
     20 H9          1.8150   -0.3830   -6.6290 hc        1 MOL      0.050200
     21 H10         2.5150    1.1940   -6.2860 hc        1 MOL      0.050200
     22 H11         3.3490    2.0370   -3.2380 h1        1 MOL      0.055900
     23 H12         2.4660    2.1790   -1.6960 h1        1 MOL      0.055900
     24 H13         4.4860    3.6670   -1.7070 hc        1 MOL      0.050200
     25 H14         4.6470    2.3880   -0.4800 hc        1 MOL      0.050200
     26 H15         5.5180    2.2480   -2.0030 hc        1 MOL      0.050200
@<TRIPOS>BOND
     1    1    2 1   
     2    2    3 1   
     3    3    4 1   
     4    4    5 2   
     5    4    6 1   
     6    6    7 1   
     7    7    8 1   
     8    4    9 1   
     9    9   10 1   
    10   10   11 1   
    11    1   12 1   
    12    1   13 1   
    13    1   14 1   
    14    2   15 1   
    15    2   16 1   
    16    7   17 1   
    17    7   18 1   
    18    8   19 1   
    19    8   20 1   
    20    8   21 1   
    21   10   22 1   
    22   10   23 1   
    23   11   24 1   
    24   11   25 1   
    25   11   26 1   
@<TRIPOS>SUBSTRUCTURE
     1 MOL         1 TEMP              0 ****  ****    0 ROOT
