@<TRIPOS>MOLECULE
N-isopropylpropan-2-amine
   22    21     1     0     0
SMALL
No Charge or Current Charge


@<TRIPOS>ATOM
      1 C1          1.5590    0.7060    2.5690 c3        1 MOL     -0.101700
      2 C2          0.9770   -0.5160    1.8750 c3        1 MOL      0.174300
      3 C3          0.2650   -1.4370    2.8560 c3        1 MOL     -0.101700
      4 N1          2.0720   -1.2700    1.2180 n3        1 MOL     -0.821600
      5 C4          2.4180   -0.6430   -0.0400 c3        1 MOL      0.174300
      6 C5          1.4170   -1.0460   -1.1310 c3        1 MOL     -0.101700
      7 C6          3.8430   -1.0340   -0.4510 c3        1 MOL     -0.101700
      8 H1          2.0670    1.3580    1.8510 hc        1 MOL      0.037300
      9 H2          0.7790    1.2910    3.0690 hc        1 MOL      0.037300
     10 H3          2.2870    0.4090    3.3320 hc        1 MOL      0.037300
     11 H4          0.2730   -0.1970    1.0980 h1        1 MOL      0.037500
     12 H5         -0.1470   -2.3100    2.3390 hc        1 MOL      0.037300
     13 H6         -0.5600   -0.9150    3.3510 hc        1 MOL      0.037300
     14 H7          0.9500   -1.8040    3.6280 hc        1 MOL      0.037300
     15 H8          2.8670   -1.2680    1.8430 hn        1 MOL      0.357000
     16 H9          2.3840    0.4580    0.0690 h1        1 MOL      0.037500
     17 H10         1.6530   -0.5860   -2.0960 hc        1 MOL      0.037300
     18 H11         1.4040   -2.1330   -1.2640 hc        1 MOL      0.037300
     19 H12         0.4060   -0.7370   -0.8460 hc        1 MOL      0.037300
     20 H13         4.1040   -0.5590   -1.4030 hc        1 MOL      0.037300
     21 H14         3.9560   -2.1160   -0.5710 hc        1 MOL      0.037300
     22 H15         4.5710   -0.6950    0.2950 hc        1 MOL      0.037300
@<TRIPOS>BOND
     1    1    2 1   
     2    2    3 1   
     3    2    4 1   
     4    4    5 1   
     5    5    6 1   
     6    5    7 1   
     7    1    8 1   
     8    1    9 1   
     9    1   10 1   
    10    2   11 1   
    11    3   12 1   
    12    3   13 1   
    13    3   14 1   
    14    4   15 1   
    15    5   16 1   
    16    6   17 1   
    17    6   18 1   
    18    6   19 1   
    19    7   20 1   
    20    7   21 1   
    21    7   22 1   
@<TRIPOS>SUBSTRUCTURE
     1 MOL         1 TEMP              0 ****  ****    0 ROOT
