@<TRIPOS>MOLECULE
N-propylpropan-1-amine
   22    21     1     0     0
SMALL
No Charge or Current Charge


@<TRIPOS>ATOM
      1 C1          1.1130    2.1050    0.4930 c3        1 MOL     -0.092500
      2 C2          1.3140    1.3530   -0.8150 c3        1 MOL     -0.083700
      3 C3          2.6190    1.7220   -1.5110 c3        1 MOL      0.169100
      4 N1          2.8010    1.0090   -2.7450 n3        1 MOL     -0.830200
      5 C4          4.0580    1.3750   -3.4000 c3        1 MOL      0.169100
      6 C5          4.2450    0.6200   -4.6990 c3        1 MOL     -0.083700
      7 C6          5.5430    0.9720   -5.4130 c3        1 MOL     -0.092500
      8 H1          0.1690    1.8190    0.9690 hc        1 MOL      0.034000
      9 H2          1.9260    1.8740    1.1890 hc        1 MOL      0.034000
     10 H3          1.1050    3.1880    0.3350 hc        1 MOL      0.034000
     11 H4          0.4780    1.5850   -1.4840 hc        1 MOL      0.045000
     12 H5          1.2840    0.2750   -0.6190 hc        1 MOL      0.045000
     13 H6          2.6250    2.7890   -1.7550 h1        1 MOL      0.026100
     14 H7          3.4830    1.5140   -0.8720 h1        1 MOL      0.026100
     15 H8          2.0300    1.2120   -3.3910 hn        1 MOL      0.356000
     16 H9          4.8420    1.1300   -2.6880 h1        1 MOL      0.026100
     17 H10         4.0290    2.4510   -3.5450 h1        1 MOL      0.026100
     18 H11         4.2520   -0.4520   -4.4680 hc        1 MOL      0.045000
     19 H12         3.4010    0.8010   -5.3750 hc        1 MOL      0.045000
     20 H13         5.6430    0.4080   -6.3460 hc        1 MOL      0.034000
     21 H14         5.5600    2.0390   -5.6590 hc        1 MOL      0.034000
     22 H15         6.4140    0.7590   -4.7860 hc        1 MOL      0.034000
@<TRIPOS>BOND
     1    1    2 1   
     2    2    3 1   
     3    3    4 1   
     4    4    5 1   
     5    5    6 1   
     6    6    7 1   
     7    1    8 1   
     8    1    9 1   
     9    1   10 1   
    10    2   11 1   
    11    2   12 1   
    12    3   13 1   
    13    3   14 1   
    14    4   15 1   
    15    5   16 1   
    16    5   17 1   
    17    6   18 1   
    18    6   19 1   
    19    7   20 1   
    20    7   21 1   
    21    7   22 1   
@<TRIPOS>SUBSTRUCTURE
     1 MOL         1 TEMP              0 ****  ****    0 ROOT
