@<TRIPOS>MOLECULE
N,N,4-trimethylbenzamide
   25    25     1     0     0
SMALL
No Charge or Current Charge


@<TRIPOS>ATOM
      1 C1          1.7460   -1.1740   -1.6530 c3        1 MOL     -0.058700
      2 C2          1.7430   -1.1590   -0.1620 ca        1 MOL     -0.063100
      3 C3          2.8020   -1.7300    0.5440 ca        1 MOL     -0.134100
      4 C4          2.7980   -1.7150    1.9390 ca        1 MOL     -0.096500
      5 C5          1.7360   -1.1290    2.6280 ca        1 MOL     -0.132900
      6 C6          0.6770   -0.5580    1.9210 ca        1 MOL     -0.096500
      7 C7          0.6810   -0.5730    0.5270 ca        1 MOL     -0.134100
      8 C8          1.7320   -1.1140    4.0820 c         1 MOL      0.672400
      9 O1          1.2020   -2.0770    4.6520 o         1 MOL     -0.592500
     10 N1          2.3080   -0.0190    4.7530 n         1 MOL     -0.483700
     11 C9          2.3280    0.0750    6.2060 c3        1 MOL      0.083600
     12 C10         2.9230    1.0960    4.0370 c3        1 MOL      0.083600
     13 H1          2.2400   -0.2760   -2.0360 hc        1 MOL      0.046900
     14 H2          2.2720   -2.0560   -2.0340 hc        1 MOL      0.046900
     15 H3          0.7250   -1.2120   -2.0460 hc        1 MOL      0.046900
     16 H4          3.6340   -2.1880    0.0160 ha        1 MOL      0.136500
     17 H5          3.6280   -2.1630    2.4800 ha        1 MOL      0.141500
     18 H6         -0.1550   -0.0990    2.4480 ha        1 MOL      0.141500
     19 H7         -0.1480   -0.1250   -0.0150 ha        1 MOL      0.136500
     20 H8          3.2370   -0.3880    6.5810 h1        1 MOL      0.042600
     21 H9          1.4610   -0.4380    6.6120 h1        1 MOL      0.042600
     22 H10         2.3030    1.1220    6.4980 h1        1 MOL      0.042600
     23 H11         2.1670    1.8510    3.8460 h1        1 MOL      0.042600
     24 H12         3.3300    0.7330    3.0990 h1        1 MOL      0.042600
     25 H13         3.7170    1.5130    4.6470 h1        1 MOL      0.042600
@<TRIPOS>BOND
     1    1    2 1   
     2    2    7 ar  
     3    2    3 ar  
     4    3    4 ar  
     5    4    5 ar  
     6    5    6 ar  
     7    6    7 ar  
     8    5    8 1   
     9    8    9 2   
    10    8   10 1   
    11   10   11 1   
    12   10   12 1   
    13    1   13 1   
    14    1   14 1   
    15    1   15 1   
    16    3   16 1   
    17    4   17 1   
    18    6   18 1   
    19    7   19 1   
    20   11   20 1   
    21   11   21 1   
    22   11   22 1   
    23   12   23 1   
    24   12   24 1   
    25   12   25 1   
@<TRIPOS>SUBSTRUCTURE
     1 MOL         1 TEMP              0 ****  ****    0 ROOT
