@<TRIPOS>MOLECULE
methyl
   14    13     1     0     0
SMALL
No Charge or Current Charge


@<TRIPOS>ATOM
      1 C1         -0.8720    0.5460    0.3730 c3        1 MOL     -0.092600
      2 C2         -0.8820    0.5510    1.8920 c3        1 MOL     -0.129700
      3 C3         -2.0710    1.2980    2.4500 c         1 MOL      0.629600
      4 O1         -2.9390    1.8430    1.7810 o         1 MOL     -0.536300
      5 O2         -2.0150    1.2620    3.8140 os        1 MOL     -0.446200
      6 C4         -3.0820    1.9330    4.4930 c3        1 MOL      0.125500
      7 H1         -0.0040    0.0010   -0.0120 hc        1 MOL      0.047900
      8 H2         -1.7760    0.0660   -0.0120 hc        1 MOL      0.047900
      9 H3         -0.8300    1.5660   -0.0230 hc        1 MOL      0.047900
     10 H4          0.0310    1.0310    2.2590 hc        1 MOL      0.077800
     11 H5         -0.9180   -0.4800    2.2580 hc        1 MOL      0.077800
     12 H6         -2.9300    1.8370    5.5650 h1        1 MOL      0.050100
     13 H7         -4.0260    1.4800    4.1940 h1        1 MOL      0.050100
     14 H8         -3.0630    2.9810    4.2050 h1        1 MOL      0.050100
@<TRIPOS>BOND
     1    1    2 1   
     2    2    3 1   
     3    3    4 2   
     4    3    5 1   
     5    5    6 1   
     6    1    7 1   
     7    1    8 1   
     8    1    9 1   
     9    2   10 1   
    10    2   11 1   
    11    6   12 1   
    12    6   13 1   
    13    6   14 1   
@<TRIPOS>SUBSTRUCTURE
     1 MOL         1 TEMP              0 ****  ****    0 ROOT
