@<TRIPOS>MOLECULE
cyclohexene
   16    16     1     0     0
SMALL
No Charge or Current Charge


@<TRIPOS>ATOM
      1 C1         -0.7650   -1.2380   -0.1630 c3        1 MOL     -0.075500
      2 C2          0.6910   -1.2570    0.2960 c3        1 MOL     -0.075500
      3 C3          1.4650   -0.0600   -0.2620 c3        1 MOL     -0.048600
      4 C4          0.6950    1.2250   -0.1920 c2        1 MOL     -0.168200
      5 C5         -0.6210    1.2770    0.0590 c2        1 MOL     -0.168200
      6 C6         -1.4650    0.0540    0.2620 c3        1 MOL     -0.048600
      7 H1         -1.3010   -2.1010    0.2490 hc        1 MOL      0.040200
      8 H2         -0.8010   -1.3330   -1.2560 hc        1 MOL      0.040200
      9 H3          0.7250   -1.2370    1.3930 hc        1 MOL      0.040200
     10 H4          1.1740   -2.1890   -0.0200 hc        1 MOL      0.040200
     11 H5          2.4040    0.0470    0.2930 hc        1 MOL      0.045900
     12 H6          1.7310   -0.2470   -1.3090 hc        1 MOL      0.045900
     13 H7          1.2420    2.1490   -0.3510 ha        1 MOL      0.120000
     14 H8         -1.1120    2.2440    0.1170 ha        1 MOL      0.120000
     15 H9         -1.7390   -0.0040    1.3230 hc        1 MOL      0.045900
     16 H10        -2.3970    0.1580   -0.3050 hc        1 MOL      0.045900
@<TRIPOS>BOND
     1    1    6 1   
     2    1    2 1   
     3    2    3 1   
     4    3    4 1   
     5    4    5 2   
     6    5    6 1   
     7    1    7 1   
     8    1    8 1   
     9    2    9 1   
    10    2   10 1   
    11    3   11 1   
    12    3   12 1   
    13    4   13 1   
    14    5   14 1   
    15    6   15 1   
    16    6   16 1   
@<TRIPOS>SUBSTRUCTURE
     1 MOL         1 TEMP              0 ****  ****    0 ROOT
