@<TRIPOS>MOLECULE
(3S)-3-methylheptane
   26    25     1     0     0
SMALL
No Charge or Current Charge


@<TRIPOS>ATOM
      1 C1          0.1380    0.8570    0.4570 c3        1 MOL     -0.091500
      2 C2          0.1820    0.7330    1.9720 c3        1 MOL     -0.079800
      3 C3          1.3510   -0.1420    2.4290 c3        1 MOL     -0.078700
      4 C4          1.3890   -0.2620    3.9560 c3        1 MOL     -0.074200
      5 C5          2.5480   -1.1350    4.4840 c3        1 MOL     -0.062500
      6 H1          2.4350   -2.1440    4.0680 hc        1 MOL      0.044900
      7 C6          3.9120   -0.5890    4.0500 c3        1 MOL     -0.090800
      8 C7          2.4440   -1.2330    6.0210 c3        1 MOL     -0.076600
      9 C8          3.5400   -2.0740    6.6610 c3        1 MOL     -0.091900
     10 H2         -0.7010    1.4840    0.1390 hc        1 MOL      0.032800
     11 H3          1.0630    1.2980    0.0720 hc        1 MOL      0.032800
     12 H4          0.0160   -0.1300   -0.0010 hc        1 MOL      0.032800
     13 H5          0.2710    1.7330    2.4110 hc        1 MOL      0.037500
     14 H6         -0.7630    0.3050    2.3260 hc        1 MOL      0.037500
     15 H7          1.2500   -1.1340    1.9740 hc        1 MOL      0.039100
     16 H8          2.2940    0.2880    2.0700 hc        1 MOL      0.039100
     17 H9          0.4310   -0.6620    4.3140 hc        1 MOL      0.037700
     18 H10         1.4850    0.7460    4.3800 hc        1 MOL      0.037700
     19 H11         4.7290   -1.2100    4.4260 hc        1 MOL      0.033900
     20 H12         3.9910   -0.5470    2.9580 hc        1 MOL      0.033900
     21 H13         4.0830    0.4180    4.4420 hc        1 MOL      0.033900
     22 H14         2.5020   -0.2240    6.4490 hc        1 MOL      0.037200
     23 H15         1.4660   -1.6400    6.3060 hc        1 MOL      0.037200
     24 H16         3.4310   -2.1180    7.7480 hc        1 MOL      0.032700
     25 H17         4.5200   -1.6350    6.4480 hc        1 MOL      0.032700
     26 H18         3.5330   -3.0950    6.2670 hc        1 MOL      0.032700
@<TRIPOS>BOND
     1    1    2 1   
     2    2    3 1   
     3    3    4 1   
     4    4    5 1   
     5    5    6 1   
     6    5    7 1   
     7    5    8 1   
     8    8    9 1   
     9    1   10 1   
    10    1   11 1   
    11    1   12 1   
    12    2   13 1   
    13    2   14 1   
    14    3   15 1   
    15    3   16 1   
    16    4   17 1   
    17    4   18 1   
    18    7   19 1   
    19    7   20 1   
    20    7   21 1   
    21    8   22 1   
    22    8   23 1   
    23    9   24 1   
    24    9   25 1   
    25    9   26 1   
@<TRIPOS>SUBSTRUCTURE
     1 MOL         1 TEMP              0 ****  ****    0 ROOT
