@<TRIPOS>MOLECULE
1,4-dichlorobutane
   14    13     1     0     0
SMALL
No Charge or Current Charge


@<TRIPOS>ATOM
      1 C1          0.5770    0.5050   -0.0200 c3        1 MOL     -0.093500
      2 C2         -0.6110   -0.4630    0.0320 c3        1 MOL     -0.093400
      3 C3         -0.7920   -1.1170    1.4000 c3        1 MOL      0.038700
      4 Cl1        -2.1760   -2.2330    1.4270 cl        1 MOL     -0.193900
      5 C4          0.7580    1.1590   -1.3870 c3        1 MOL      0.038700
      6 Cl2         2.1420    2.2750   -1.4150 cl        1 MOL     -0.193900
      7 H1          1.5030   -0.0070    0.2640 hc        1 MOL      0.057800
      8 H2          0.4170    1.3010    0.7190 hc        1 MOL      0.057800
      9 H3         -0.5050   -1.2420   -0.7320 hc        1 MOL      0.057800
     10 H4         -1.5280    0.0890   -0.2050 hc        1 MOL      0.057800
     11 H5          0.1010   -1.6780    1.6920 h1        1 MOL      0.066600
     12 H6         -0.9780   -0.3520    2.1590 h1        1 MOL      0.066600
     13 H7          0.9150    0.4080   -2.1670 h1        1 MOL      0.066600
     14 H8         -0.1320    1.7400   -1.6470 h1        1 MOL      0.066600
@<TRIPOS>BOND
     1    1    2 1   
     2    2    3 1   
     3    3    4 1   
     4    1    5 1   
     5    5    6 1   
     6    1    7 1   
     7    1    8 1   
     8    2    9 1   
     9    2   10 1   
    10    3   11 1   
    11    3   12 1   
    12    5   13 1   
    13    5   14 1   
@<TRIPOS>SUBSTRUCTURE
     1 MOL         1 TEMP              0 ****  ****    0 ROOT
