@<TRIPOS>MOLECULE
pyridine-4-carbaldehyde
   13    13     1     0     0
SMALL
No Charge or Current Charge


@<TRIPOS>ATOM
      1 C1          0.2270   -0.4200    0.9730 ca        1 MOL     -0.198700
      2 C2         -0.6320   -1.3220    1.5800 ca        1 MOL      0.383300
      3 N1         -0.4090   -1.8820    2.7910 nb        1 MOL     -0.642100
      4 C3          0.7300   -1.5160    3.4210 ca        1 MOL      0.383300
      5 C4          1.6520   -0.6230    2.9000 ca        1 MOL     -0.198700
      6 C5          1.3880   -0.0680    1.6520 ca        1 MOL     -0.158800
      7 C6          2.3220    0.8750    1.0600 c         1 MOL      0.573100
      8 O1          2.1430    1.4000   -0.0430 o         1 MOL     -0.513000
      9 H1         -0.0110   -0.0050   -0.0010 ha        1 MOL      0.155000
     10 H2         -1.5510   -1.6280    1.0930 h4        1 MOL      0.028200
     11 H3          0.8890   -1.9760    4.3900 h4        1 MOL      0.028200
     12 H4          2.5480   -0.3690    3.4560 ha        1 MOL      0.155000
     13 H5          3.2370    1.1230    1.6420 h4        1 MOL      0.004900
@<TRIPOS>BOND
     1    1    6 ar  
     2    1    2 ar  
     3    2    3 ar  
     4    3    4 ar  
     5    4    5 ar  
     6    5    6 ar  
     7    6    7 1   
     8    7    8 2   
     9    1    9 1   
    10    2   10 1   
    11    4   11 1   
    12    5   12 1   
    13    7   13 1   
@<TRIPOS>SUBSTRUCTURE
     1 MOL         1 TEMP              0 ****  ****    0 ROOT
