@<TRIPOS>MOLECULE
decan-2-one
   31    30     1     0     0
SMALL
No Charge or Current Charge


@<TRIPOS>ATOM
      1 C1         -4.0260   -8.6530    6.5590 c3        1 MOL     -0.091800
      2 C2         -3.7980   -7.9690    5.2200 c3        1 MOL     -0.079100
      3 C3         -2.8520   -6.7760    5.3550 c3        1 MOL     -0.078600
      4 C4         -2.6250   -6.0910    4.0060 c3        1 MOL     -0.077500
      5 C5         -1.6780   -4.8970    4.1410 c3        1 MOL     -0.076800
      6 C6         -1.4510   -4.2130    2.7920 c3        1 MOL     -0.076600
      7 C7         -0.5050   -3.0190    2.9260 c3        1 MOL     -0.074200
      8 C8         -0.2780   -2.3350    1.5790 c3        1 MOL     -0.178100
      9 C9          0.6580   -1.1450    1.6810 c         1 MOL      0.562900
     10 O1          1.1690   -0.7850    2.7410 o         1 MOL     -0.533700
     11 C10         0.9360   -0.4080    0.3960 c3        1 MOL     -0.203600
     12 H1         -4.7040   -9.5050    6.4530 hc        1 MOL      0.033100
     13 H2         -4.4710   -7.9510    7.2710 hc        1 MOL      0.033100
     14 H3         -3.0830   -9.0140    6.9810 hc        1 MOL      0.033100
     15 H4         -4.7610   -7.6370    4.8170 hc        1 MOL      0.037700
     16 H5         -3.3830   -8.6950    4.5120 hc        1 MOL      0.037700
     17 H6         -1.8910   -7.1130    5.7620 hc        1 MOL      0.039100
     18 H7         -3.2690   -6.0540    6.0680 hc        1 MOL      0.039100
     19 H8         -2.2070   -6.8130    3.2930 hc        1 MOL      0.037500
     20 H9         -3.5860   -5.7540    3.5990 hc        1 MOL      0.037500
     21 H10        -0.7170   -5.2340    4.5480 hc        1 MOL      0.041600
     22 H11        -2.0960   -4.1760    4.8530 hc        1 MOL      0.041600
     23 H12        -2.4120   -3.8750    2.3850 hc        1 MOL      0.036400
     24 H13        -1.0330   -4.9340    2.0790 hc        1 MOL      0.036400
     25 H14        -0.9190   -2.2970    3.6410 hc        1 MOL      0.053900
     26 H15         0.4560   -3.3530    3.3360 hc        1 MOL      0.053900
     27 H16        -1.2330   -1.9790    1.1760 hc        1 MOL      0.063000
     28 H17         0.1570   -3.0460    0.8690 hc        1 MOL      0.063000
     29 H18         0.2000    0.3880    0.2640 hc        1 MOL      0.063200
     30 H19         1.9450    0.0110    0.4260 hc        1 MOL      0.063200
     31 H20         0.8650   -1.0990   -0.4480 hc        1 MOL      0.063200
@<TRIPOS>BOND
     1    1    2 1   
     2    2    3 1   
     3    3    4 1   
     4    4    5 1   
     5    5    6 1   
     6    6    7 1   
     7    7    8 1   
     8    8    9 1   
     9    9   10 2   
    10    9   11 1   
    11    1   12 1   
    12    1   13 1   
    13    1   14 1   
    14    2   15 1   
    15    2   16 1   
    16    3   17 1   
    17    3   18 1   
    18    4   19 1   
    19    4   20 1   
    20    5   21 1   
    21    5   22 1   
    22    6   23 1   
    23    6   24 1   
    24    7   25 1   
    25    7   26 1   
    26    8   27 1   
    27    8   28 1   
    28   11   29 1   
    29   11   30 1   
    30   11   31 1   
@<TRIPOS>SUBSTRUCTURE
     1 MOL         1 TEMP              0 ****  ****    0 ROOT
