@<TRIPOS>MOLECULE
(2S)-butan-2-ol
   15    14     1     0     0
SMALL
No Charge or Current Charge


@<TRIPOS>ATOM
      1 C1          0.9780   -0.0330   -0.2360 c3        1 MOL     -0.089600
      2 C2          1.4100    0.6790   -1.5110 c3        1 MOL     -0.073300
      3 C3          0.6390    0.1880   -2.7390 c3        1 MOL      0.138900
      4 H1          0.8080   -0.8860   -2.8800 h1        1 MOL      0.028700
      5 C4          1.0610    0.9420   -3.9930 c3        1 MOL     -0.130400
      6 O1         -0.7550    0.3900   -2.5270 oh        1 MOL     -0.598700
      7 H2          1.5420    0.3350    0.6270 hc        1 MOL      0.037400
      8 H3          1.1300   -1.1140   -0.3110 hc        1 MOL      0.037400
      9 H4         -0.0850    0.1450   -0.0460 hc        1 MOL      0.037400
     10 H5          2.4850    0.5240   -1.6590 hc        1 MOL      0.045200
     11 H6          1.2460    1.7550   -1.3740 hc        1 MOL      0.045200
     12 H7          0.5070    0.5870   -4.8690 hc        1 MOL      0.041700
     13 H8          0.8950    2.0180   -3.8840 hc        1 MOL      0.041700
     14 H9          2.1230    0.7730   -4.2030 hc        1 MOL      0.041700
     15 H10        -1.2050    0.0670   -3.3230 ho        1 MOL      0.396800
@<TRIPOS>BOND
     1    1    2 1   
     2    2    3 1   
     3    3    4 1   
     4    3    5 1   
     5    3    6 1   
     6    1    7 1   
     7    1    8 1   
     8    1    9 1   
     9    2   10 1   
    10    2   11 1   
    11    5   12 1   
    12    5   13 1   
    13    5   14 1   
    14    6   15 1   
@<TRIPOS>SUBSTRUCTURE
     1 MOL         1 TEMP              0 ****  ****    0 ROOT
