@<TRIPOS>MOLECULE
1,2,3,7-tetrachlorodibenzo-p-dioxin
   22    24     1     0     0
SMALL
No Charge or Current Charge


@<TRIPOS>ATOM
      1 C1         -1.0040   -0.2570    0.3260 ca        1 MOL     -0.118400
      2 C2         -1.4370   -1.5820    0.2690 ca        1 MOL     -0.103700
      3 C3         -2.7270   -1.9050    0.6890 ca        1 MOL      0.059900
      4 C4         -3.5800   -0.9100    1.1630 ca        1 MOL      0.069800
      5 C5         -3.1490    0.4150    1.2200 ca        1 MOL     -0.109700
      6 C6         -1.8580    0.7400    0.8000 ca        1 MOL      0.018900
      7 Cl1        -1.3200    2.3740    0.8640 cl        1 MOL     -0.075800
      8 O1         -4.8560   -1.1830    1.5850 os        1 MOL     -0.215100
      9 C7         -5.2390   -2.4980    1.5120 ca        1 MOL      0.079200
     10 C8         -6.5290   -2.8210    1.9320 ca        1 MOL     -0.107900
     11 C9         -6.9620   -4.1460    1.8750 ca        1 MOL      0.025400
     12 C10        -6.1070   -5.1430    1.4010 ca        1 MOL      0.015900
     13 C11        -4.8170   -4.8180    0.9820 ca        1 MOL      0.030200
     14 C12        -4.3860   -3.4940    1.0380 ca        1 MOL      0.075400
     15 O2         -3.1090   -3.2200    0.6160 os        1 MOL     -0.203700
     16 Cl2        -3.7290   -6.0340    0.3830 cl        1 MOL     -0.027000
     17 Cl3        -6.6600   -6.7920    1.3340 cl        1 MOL     -0.035900
     18 Cl4        -8.5740   -4.4760    2.4110 cl        1 MOL     -0.048900
     19 H1          0.0030   -0.0140   -0.0050 ha        1 MOL      0.158100
     20 H2         -0.7670   -2.3530   -0.1020 ha        1 MOL      0.164200
     21 H3         -3.8200    1.1860    1.5900 ha        1 MOL      0.171700
     22 H4         -7.1860   -2.0370    2.2990 ha        1 MOL      0.177300
@<TRIPOS>BOND
     1    1    6 ar  
     2    1    2 ar  
     3    2    3 ar  
     4    3   15 1   
     5    3    4 ar  
     6    4    5 ar  
     7    5    6 ar  
     8    6    7 1   
     9    4    8 1   
    10    8    9 1   
    11    9   14 ar  
    12    9   10 ar  
    13   10   11 ar  
    14   11   12 ar  
    15   12   13 ar  
    16   13   14 ar  
    17   14   15 1   
    18   13   16 1   
    19   12   17 1   
    20   11   18 1   
    21    1   19 1   
    22    2   20 1   
    23    5   21 1   
    24   10   22 1   
@<TRIPOS>SUBSTRUCTURE
     1 MOL         1 TEMP              0 ****  ****    0 ROOT
