@<TRIPOS>MOLECULE
1-ethyl-2-methyl-benzene
   21    21     1     0     0
SMALL
No Charge or Current Charge


@<TRIPOS>ATOM
      1 C1          1.2970   -2.2570   -2.2090 c3        1 MOL     -0.089200
      2 C2          1.9530   -1.0260   -1.6040 c3        1 MOL     -0.039400
      3 C3          1.8850   -1.0360   -0.1120 ca        1 MOL     -0.075700
      4 C4          2.9210   -1.6310    0.6080 ca        1 MOL     -0.125000
      5 C5          2.8780   -1.6520    2.0020 ca        1 MOL     -0.132700
      6 C6          1.8000   -1.0790    2.6760 ca        1 MOL     -0.130100
      7 C7          0.7640   -0.4840    1.9550 ca        1 MOL     -0.130200
      8 C8          0.8070   -0.4630    0.5610 ca        1 MOL     -0.073200
      9 C9         -0.3140    0.1790   -0.1890 c3        1 MOL     -0.055400
     10 H1          1.3530   -2.2400   -3.3030 hc        1 MOL      0.035900
     11 H2          0.2420   -2.3030   -1.9240 hc        1 MOL      0.035900
     12 H3          1.7820   -3.1760   -1.8630 hc        1 MOL      0.035900
     13 H4          1.4680   -0.1210   -1.9900 hc        1 MOL      0.046300
     14 H5          3.0000   -0.9680   -1.9260 hc        1 MOL      0.046300
     15 H6          3.7660   -2.0800    0.0930 ha        1 MOL      0.129900
     16 H7          3.6850   -2.1140    2.5630 ha        1 MOL      0.129800
     17 H8          1.7670   -1.0950    3.7610 ha        1 MOL      0.129100
     18 H9         -0.0720   -0.0400    2.4890 ha        1 MOL      0.129500
     19 H10        -0.1030    1.2420   -0.3510 hc        1 MOL      0.044100
     20 H11        -0.4640   -0.3000   -1.1640 hc        1 MOL      0.044100
     21 H12        -1.2600    0.0900    0.3590 hc        1 MOL      0.044100
@<TRIPOS>BOND
     1    1    2 1   
     2    2    3 1   
     3    3    8 ar  
     4    3    4 ar  
     5    4    5 ar  
     6    5    6 ar  
     7    6    7 ar  
     8    7    8 ar  
     9    8    9 1   
    10    1   10 1   
    11    1   11 1   
    12    1   12 1   
    13    2   13 1   
    14    2   14 1   
    15    4   15 1   
    16    5   16 1   
    17    6   17 1   
    18    7   18 1   
    19    9   19 1   
    20    9   20 1   
    21    9   21 1   
@<TRIPOS>SUBSTRUCTURE
     1 MOL         1 TEMP              0 ****  ****    0 ROOT
