@<TRIPOS>MOLECULE
tetrahydropyran
   16    16     1     0     0
SMALL
No Charge or Current Charge


@<TRIPOS>ATOM
      1 C1         -0.4600   -0.9420   -1.0400 c3        1 MOL     -0.076900
      2 C2         -0.4940   -1.2940    0.4430 c3        1 MOL     -0.112500
      3 C3          0.5550   -0.4990    1.2100 c3        1 MOL      0.127100
      4 O1          0.3820    0.9030    0.9980 os        1 MOL     -0.416000
      5 C4          0.5340    1.2620   -0.3750 c3        1 MOL      0.127100
      6 C5         -0.5160    0.5690   -1.2350 c3        1 MOL     -0.112500
      7 H1         -1.2970   -1.4210   -1.5610 hc        1 MOL      0.041900
      8 H2          0.4630   -1.3320   -1.4860 hc        1 MOL      0.041900
      9 H3         -1.4880   -1.0490    0.8380 hc        1 MOL      0.049600
     10 H4         -0.3370   -2.3680    0.5840 hc        1 MOL      0.049600
     11 H5          0.4550   -0.6890    2.2830 h1        1 MOL      0.045300
     12 H6          1.5700   -0.7890    0.9140 h1        1 MOL      0.045300
     13 H7          0.4180    2.3480   -0.4510 h1        1 MOL      0.045300
     14 H8          1.5480    1.0130   -0.7070 h1        1 MOL      0.045300
     15 H9         -1.5110    0.9240   -0.9390 hc        1 MOL      0.049600
     16 H10        -0.3730    0.8230   -2.2900 hc        1 MOL      0.049600
@<TRIPOS>BOND
     1    1    6 1   
     2    1    2 1   
     3    2    3 1   
     4    3    4 1   
     5    4    5 1   
     6    5    6 1   
     7    1    7 1   
     8    1    8 1   
     9    2    9 1   
    10    2   10 1   
    11    3   11 1   
    12    3   12 1   
    13    5   13 1   
    14    5   14 1   
    15    6   15 1   
    16    6   16 1   
@<TRIPOS>SUBSTRUCTURE
     1 MOL         1 TEMP              0 ****  ****    0 ROOT
