@<TRIPOS>MOLECULE
3-chloroaniline
   14    14     1     0     0
SMALL
No Charge or Current Charge


@<TRIPOS>ATOM
      1 C1          1.8850   -1.0360   -0.1120 ca        1 MOL     -0.083700
      2 C2          2.9210   -1.6310    0.6080 ca        1 MOL     -0.193100
      3 C3          2.8780   -1.6520    2.0020 ca        1 MOL      0.152200
      4 C4          1.8000   -1.0790    2.6760 ca        1 MOL     -0.191800
      5 C5          0.7640   -0.4840    1.9550 ca        1 MOL      0.057300
      6 C6          0.8070   -0.4630    0.5610 ca        1 MOL     -0.169400
      7 Cl1        -0.5670    0.2240    2.7850 cl        1 MOL     -0.100500
      8 N1          3.9260   -2.2530    2.7300 nh        1 MOL     -0.821600
      9 H1          1.9190   -1.0190   -1.1980 ha        1 MOL      0.136200
     10 H2          3.7570   -2.0740    0.0730 ha        1 MOL      0.134000
     11 H3          1.7700   -1.0970    3.7630 ha        1 MOL      0.146700
     12 H4          0.0060   -0.0030   -0.0140 ha        1 MOL      0.146500
     13 H5          4.6700   -2.7020    2.2350 hn        1 MOL      0.393700
     14 H6          3.8610   -2.3030    3.7270 hn        1 MOL      0.393700
@<TRIPOS>BOND
     1    1    6 ar  
     2    1    2 ar  
     3    2    3 ar  
     4    3    4 ar  
     5    4    5 ar  
     6    5    6 ar  
     7    5    7 1   
     8    3    8 1   
     9    1    9 1   
    10    2   10 1   
    11    4   11 1   
    12    6   12 1   
    13    8   13 1   
    14    8   14 1   
@<TRIPOS>SUBSTRUCTURE
     1 MOL         1 TEMP              0 ****  ****    0 ROOT
