@<TRIPOS>MOLECULE
1-phenylvinylbenzene
   26    27     1     0     0
SMALL
No Charge or Current Charge


@<TRIPOS>ATOM
      1 C1          2.0250   -2.1890   -2.2170 c2        1 MOL     -0.199200
      2 C2          1.9300   -1.0140   -1.5660 ce        1 MOL     -0.016600
      3 C3          1.8950    0.2080   -2.3540 ca        1 MOL     -0.052900
      4 C4          0.7940    1.0600   -2.2720 ca        1 MOL     -0.116100
      5 C5          0.7610    2.2320   -3.0270 ca        1 MOL     -0.131900
      6 C6          1.8290    2.5510   -3.8660 ca        1 MOL     -0.127800
      7 C7          2.9300    1.6980   -3.9490 ca        1 MOL     -0.131900
      8 C8          2.9630    0.5270   -3.1930 ca        1 MOL     -0.116100
      9 C9          1.8650   -1.0390   -0.0830 ca        1 MOL     -0.052900
     10 C10         2.8440   -0.3890    0.6690 ca        1 MOL     -0.116100
     11 C11         2.7830   -0.4130    2.0630 ca        1 MOL     -0.131900
     12 C12         1.7430   -1.0870    2.7040 ca        1 MOL     -0.127800
     13 C13         0.7650   -1.7370    1.9520 ca        1 MOL     -0.131900
     14 C14         0.8250   -1.7130    0.5590 ca        1 MOL     -0.116100
     15 H1          2.0560   -3.1390   -1.6920 ha        1 MOL      0.119300
     16 H2          2.0760   -2.2460   -3.3010 ha        1 MOL      0.119300
     17 H3         -0.0460    0.8250   -1.6220 ha        1 MOL      0.135900
     18 H4         -0.0960    2.8960   -2.9630 ha        1 MOL      0.131400
     19 H5          1.8040    3.4630   -4.4550 ha        1 MOL      0.130900
     20 H6          3.7610    1.9470   -4.6020 ha        1 MOL      0.131400
     21 H7          3.8280   -0.1280   -3.2680 ha        1 MOL      0.135900
     22 H8          3.6600    0.1400    0.1840 ha        1 MOL      0.135900
     23 H9          3.5450    0.0930    2.6480 ha        1 MOL      0.131400
     24 H10         1.6960   -1.1050    3.7890 ha        1 MOL      0.130900
     25 H11        -0.0450   -2.2610    2.4510 ha        1 MOL      0.131400
     26 H12         0.0550   -2.2240   -0.0140 ha        1 MOL      0.135900
@<TRIPOS>BOND
     1    1    2 2   
     2    2    3 1   
     3    3    8 ar  
     4    3    4 ar  
     5    4    5 ar  
     6    5    6 ar  
     7    6    7 ar  
     8    7    8 ar  
     9    2    9 1   
    10    9   14 ar  
    11    9   10 ar  
    12   10   11 ar  
    13   11   12 ar  
    14   12   13 ar  
    15   13   14 ar  
    16    1   15 1   
    17    1   16 1   
    18    4   17 1   
    19    5   18 1   
    20    6   19 1   
    21    7   20 1   
    22    8   21 1   
    23   10   22 1   
    24   11   23 1   
    25   12   24 1   
    26   13   25 1   
    27   14   26 1   
@<TRIPOS>SUBSTRUCTURE
     1 MOL         1 TEMP              0 ****  ****    0 ROOT
