@<TRIPOS>MOLECULE
1,1,2-trichloroethylene
    6     5     1     0     0
SMALL
No Charge or Current Charge


@<TRIPOS>ATOM
      1 C1         -0.2420    0.3060    0.5890 c2        1 MOL     -0.068700
      2 C2          0.2370   -0.3830   -0.4500 c2        1 MOL      0.062900
      3 Cl1         0.7820   -2.0180   -0.3330 cl        1 MOL     -0.051500
      4 Cl2         0.3330    0.3690   -2.0050 cl        1 MOL     -0.051500
      5 Cl3        -0.7980    1.9270    0.5400 cl        1 MOL     -0.065500
      6 H1         -0.3290   -0.1030    1.5870 h4        1 MOL      0.174400
@<TRIPOS>BOND
     1    1    2 2   
     2    2    3 1   
     3    2    4 1   
     4    1    5 1   
     5    1    6 1   
@<TRIPOS>SUBSTRUCTURE
     1 MOL         1 TEMP              0 ****  ****    0 ROOT
