@<TRIPOS>MOLECULE
(4S)-4-isopropenylcyclohexene-1-carbaldehyde
   25    25     1     0     0
SMALL
No Charge or Current Charge


@<TRIPOS>ATOM
      1 C1          5.8420   -2.3170   -2.6940 c3        1 MOL     -0.065300
      2 C2          5.7460   -0.8210   -2.6400 c2        1 MOL     -0.108300
      3 C3          6.7970   -0.0320   -2.9060 c2        1 MOL     -0.221600
      4 C4          4.4080   -0.2590   -2.2720 c3        1 MOL     -0.029700
      5 H1          4.5010    0.8350   -2.2760 hc        1 MOL      0.055000
      6 C5          3.3360   -0.6550   -3.2970 c3        1 MOL     -0.071900
      7 C6          1.9790   -0.0350   -2.9460 c3        1 MOL     -0.037000
      8 C7          1.6550   -0.1450   -1.4870 ce        1 MOL     -0.214700
      9 C8          2.5540   -0.4610   -0.5440 c2        1 MOL     -0.097900
     10 C9          4.0030   -0.7090   -0.8570 c3        1 MOL     -0.055500
     11 C10         0.2720    0.0840   -1.0610 c         1 MOL      0.564700
     12 O1         -0.6240    0.3600   -1.8490 o         1 MOL     -0.527000
     13 H2          6.1320   -2.7140   -1.7160 hc        1 MOL      0.043000
     14 H3          4.8760   -2.7500   -2.9740 hc        1 MOL      0.043000
     15 H4          6.5840   -2.6560   -3.4250 hc        1 MOL      0.043000
     16 H5          6.7170    1.0490   -2.8640 ha        1 MOL      0.113900
     17 H6          7.7630   -0.4490   -3.1720 ha        1 MOL      0.113900
     18 H7          3.6260   -0.3350   -4.3060 hc        1 MOL      0.047600
     19 H8          3.2380   -1.7490   -3.3300 hc        1 MOL      0.047600
     20 H9          1.9800    1.0260   -3.2260 hc        1 MOL      0.061900
     21 H10         1.2040   -0.5260   -3.5460 hc        1 MOL      0.061900
     22 H11         2.2600   -0.5520    0.4980 ha        1 MOL      0.123500
     23 H12         4.6190   -0.1780   -0.1200 hc        1 MOL      0.060200
     24 H13         4.1990   -1.7800   -0.7200 hc        1 MOL      0.060200
     25 H14         0.0950   -0.0100    0.0230 h4        1 MOL     -0.010500
@<TRIPOS>BOND
     1    1    2 1   
     2    2    3 2   
     3    2    4 1   
     4    4    5 1   
     5    4   10 1   
     6    4    6 1   
     7    6    7 1   
     8    7    8 1   
     9    8    9 2   
    10    9   10 1   
    11    8   11 1   
    12   11   12 2   
    13    1   13 1   
    14    1   14 1   
    15    1   15 1   
    16    3   16 1   
    17    3   17 1   
    18    6   18 1   
    19    6   19 1   
    20    7   20 1   
    21    7   21 1   
    22    9   22 1   
    23   10   23 1   
    24   10   24 1   
    25   11   25 1   
@<TRIPOS>SUBSTRUCTURE
     1 MOL         1 TEMP              0 ****  ****    0 ROOT
