@<TRIPOS>MOLECULE
1,1,2,2,3,3,4,4-octafluorocyclobutane
   12    12     1     0     0
SMALL
No Charge or Current Charge


@<TRIPOS>ATOM
      1 C1          0.8300   -0.6950    0.0040 cy        1 MOL      0.345200
      2 C2         -0.2830   -0.2970    1.0020 cy        1 MOL      0.345200
      3 C3         -0.5970    0.9000    0.0720 cy        1 MOL      0.345200
      4 C4          0.0510    0.0920   -1.0770 cy        1 MOL      0.345200
      5 F1          0.8060    0.8050   -1.9420 f         1 MOL     -0.172600
      6 F2         -0.8070   -0.6440   -1.8200 f         1 MOL     -0.172600
      7 F3          0.0290    2.0560    0.3900 f         1 MOL     -0.172600
      8 F4         -1.9070    1.1930   -0.0830 f         1 MOL     -0.172600
      9 F5         -1.2840   -1.1980    1.1390 f         1 MOL     -0.172600
     10 F6          0.1320    0.0210    2.2470 f         1 MOL     -0.172600
     11 F7          0.9690   -2.0190   -0.2220 f         1 MOL     -0.172600
     12 F8          2.0620   -0.2130    0.2910 f         1 MOL     -0.172600
@<TRIPOS>BOND
     1    1    4 1   
     2    1    2 1   
     3    2    3 1   
     4    3    4 1   
     5    4    5 1   
     6    4    6 1   
     7    3    7 1   
     8    3    8 1   
     9    2    9 1   
    10    2   10 1   
    11    1   11 1   
    12    1   12 1   
@<TRIPOS>SUBSTRUCTURE
     1 MOL         1 TEMP              0 ****  ****    0 ROOT
