@<TRIPOS>MOLECULE
1-methylcyclohexene
   19    19     1     0     0
SMALL
No Charge or Current Charge


@<TRIPOS>ATOM
      1 C1          1.4040    3.7150    1.9910 c3        1 MOL     -0.059300
      2 C2          0.6070    2.4540    1.8420 c2        1 MOL     -0.115200
      3 C3          0.1960    2.0090    0.6420 c2        1 MOL     -0.171700
      4 C4         -0.6330    0.7740    0.4510 c3        1 MOL     -0.044300
      5 C5         -1.2420    0.2490    1.7520 c3        1 MOL     -0.075500
      6 C6         -0.2260    0.2900    2.8870 c3        1 MOL     -0.075100
      7 C7          0.2910    1.7120    3.1180 c3        1 MOL     -0.041800
      8 H1          2.4740    3.4980    1.9320 hc        1 MOL      0.040100
      9 H2          1.1940    4.1860    2.9560 hc        1 MOL      0.040100
     10 H3          1.1450    4.4240    1.2000 hc        1 MOL      0.040100
     11 H4          0.4600    2.5590   -0.2580 ha        1 MOL      0.119200
     12 H5         -1.4400    0.9840   -0.2600 hc        1 MOL      0.045600
     13 H6         -0.0000   -0.0000   -0.0000 hc        1 MOL      0.045600
     14 H7         -2.1140    0.8590    2.0220 hc        1 MOL      0.039900
     15 H8         -1.6030   -0.7750    1.6030 hc        1 MOL      0.039900
     16 H9         -0.6770   -0.0930    3.8100 hc        1 MOL      0.039800
     17 H10         0.6150   -0.3720    2.6460 hc        1 MOL      0.039800
     18 H11        -0.4600    2.2860    3.6750 hc        1 MOL      0.046300
     19 H12         1.1870    1.6560    3.7480 hc        1 MOL      0.046300
@<TRIPOS>BOND
     1    1    2 1   
     2    2    7 1   
     3    2    3 2   
     4    3    4 1   
     5    4    5 1   
     6    5    6 1   
     7    6    7 1   
     8    1    8 1   
     9    1    9 1   
    10    1   10 1   
    11    3   11 1   
    12    4   12 1   
    13    4   13 1   
    14    5   14 1   
    15    5   15 1   
    16    6   16 1   
    17    6   17 1   
    18    7   18 1   
    19    7   19 1   
@<TRIPOS>SUBSTRUCTURE
     1 MOL         1 TEMP              0 ****  ****    0 ROOT
