@<TRIPOS>MOLECULE
1-bromobutane
   14    13     1     0     0
SMALL
No Charge or Current Charge


@<TRIPOS>ATOM
      1 C1         -0.7540    0.4800   -1.7630 c3        1 MOL     -0.092900
      2 C2          0.0330   -0.3380   -0.7510 c3        1 MOL     -0.081200
      3 C3         -0.0290    0.2850    0.6430 c3        1 MOL     -0.081700
      4 C4          0.7610   -0.5400    1.6440 c3        1 MOL     -0.006700
      5 Br1         0.6570    0.2850    3.4050 br        1 MOL     -0.181500
      6 H1         -0.7040    0.0260   -2.7580 hc        1 MOL      0.035900
      7 H2         -1.8060    0.5360   -1.4690 hc        1 MOL      0.035900
      8 H3         -0.3650    1.5010   -1.8310 hc        1 MOL      0.035900
      9 H4          1.0760   -0.4090   -1.0810 hc        1 MOL      0.040600
     10 H5         -0.3690   -1.3570   -0.7220 hc        1 MOL      0.040600
     11 H6          0.3660    1.3080    0.6050 hc        1 MOL      0.056000
     12 H7         -1.0750    0.3640    0.9630 hc        1 MOL      0.056000
     13 H8          1.8220   -0.5920    1.3860 h1        1 MOL      0.071500
     14 H9          0.3590   -1.5520    1.7490 h1        1 MOL      0.071500
@<TRIPOS>BOND
     1    1    2 1   
     2    2    3 1   
     3    3    4 1   
     4    4    5 1   
     5    1    6 1   
     6    1    7 1   
     7    1    8 1   
     8    2    9 1   
     9    2   10 1   
    10    3   11 1   
    11    3   12 1   
    12    4   13 1   
    13    4   14 1   
@<TRIPOS>SUBSTRUCTURE
     1 MOL         1 TEMP              0 ****  ****    0 ROOT
