@<TRIPOS>MOLECULE
propan-1-ol
   12    11     1     0     0
SMALL
No Charge or Current Charge


@<TRIPOS>ATOM
      1 C1         -0.0040   -0.6640    0.8700 c3        1 MOL     -0.092800
      2 C2          1.2440   -0.4430    1.7060 c3        1 MOL     -0.086800
      3 C3          1.2750   -1.3490    2.9270 c3        1 MOL      0.132400
      4 O1          2.4640   -1.0910    3.6610 oh        1 MOL     -0.603100
      5 H1         -0.0110   -0.0050   -0.0040 hc        1 MOL      0.034900
      6 H2         -0.0450   -1.6990    0.5160 hc        1 MOL      0.034900
      7 H3         -0.9070   -0.4690    1.4560 hc        1 MOL      0.034900
      8 H4          1.2990    0.6050    2.0240 hc        1 MOL      0.053800
      9 H5          2.1380   -0.6190    1.0950 hc        1 MOL      0.053800
     10 H6          0.4160   -1.1580    3.5780 h1        1 MOL      0.019800
     11 H7          1.2700   -2.4040    2.6320 h1        1 MOL      0.019800
     12 H8          2.4530   -1.6830    4.4310 ho        1 MOL      0.398500
@<TRIPOS>BOND
     1    1    2 1   
     2    2    3 1   
     3    3    4 1   
     4    1    5 1   
     5    1    6 1   
     6    1    7 1   
     7    2    8 1   
     8    2    9 1   
     9    3   10 1   
    10    3   11 1   
    11    4   12 1   
@<TRIPOS>SUBSTRUCTURE
     1 MOL         1 TEMP              0 ****  ****    0 ROOT
