@<TRIPOS>MOLECULE
1-iodobutane
   14    13     1     0     0
SMALL
No Charge or Current Charge


@<TRIPOS>ATOM
      1 C1         -0.0300    0.4280    1.0060 c3        1 MOL     -0.092300
      2 C2          0.7900   -0.4200    1.9650 c3        1 MOL     -0.080700
      3 C3          0.7700    0.1560    3.3810 c3        1 MOL     -0.076600
      4 C4          1.5980   -0.7030    4.3370 c3        1 MOL      0.070400
      5 I1          1.5600    0.1150    6.3120 i         1 MOL     -0.254900
      6 H1         -0.0110    0.0090   -0.0040 hc        1 MOL      0.035600
      7 H2         -1.0730    0.4710    1.3360 hc        1 MOL      0.035600
      8 H3          0.3530    1.4530    0.9620 hc        1 MOL      0.035600
      9 H4          1.8230   -0.4770    1.6000 hc        1 MOL      0.039900
     10 H5          0.3920   -1.4410    1.9720 hc        1 MOL      0.039900
     11 H6          1.1630    1.1810    3.3630 hc        1 MOL      0.052800
     12 H7         -0.2670    0.2180    3.7340 hc        1 MOL      0.052800
     13 H8          2.6350   -0.7610    3.9880 h1        1 MOL      0.071000
     14 H9          1.2040   -1.7250    4.3600 h1        1 MOL      0.071000
@<TRIPOS>BOND
     1    1    2 1   
     2    2    3 1   
     3    3    4 1   
     4    4    5 1   
     5    1    6 1   
     6    1    7 1   
     7    1    8 1   
     8    2    9 1   
     9    2   10 1   
    10    3   11 1   
    11    3   12 1   
    12    4   13 1   
    13    4   14 1   
@<TRIPOS>SUBSTRUCTURE
     1 MOL         1 TEMP              0 ****  ****    0 ROOT
