@<TRIPOS>MOLECULE
5-(trifluoromethyl)-1H-pyrimidine-2,4-dione
   15    15     1     0     0
SMALL
No Charge or Current Charge


@<TRIPOS>ATOM
      1 C1          1.1620    1.5070    2.5830 cc        1 MOL      0.117900
      2 C2          0.7830    0.3890    1.9520 cd        1 MOL     -0.367400
      3 C3          1.5360   -0.8690    2.2310 c         1 MOL      0.732100
      4 O1          1.2390   -1.9280    1.6860 o         1 MOL     -0.575200
      5 N1          2.5780   -0.7390    3.1410 n         1 MOL     -0.584300
      6 C4          2.9650    0.4330    3.7940 c         1 MOL      0.805000
      7 O2          3.9020    0.4730    4.5910 o         1 MOL     -0.612900
      8 N2          2.2040    1.5450    3.4680 n         1 MOL     -0.459500
      9 C5         -0.3530    0.3290    0.9820 c3        1 MOL      0.725100
     10 F1         -0.9310    1.5400    0.8360 f         1 MOL     -0.229200
     11 F2          0.0670   -0.0760   -0.2350 f         1 MOL     -0.229200
     12 F3         -1.3050   -0.5340    1.3960 f         1 MOL     -0.229200
     13 H1          0.6610    2.4560    2.4290 h4        1 MOL      0.179400
     14 H2          3.1100   -1.5790    3.3530 hn        1 MOL      0.362200
     15 H3          2.4250    2.4360    3.9020 hn        1 MOL      0.365300
@<TRIPOS>BOND
     1    1    8 1   
     2    1    2 2   
     3    2    3 1   
     4    3    4 2   
     5    3    5 1   
     6    5    6 1   
     7    6    7 2   
     8    6    8 1   
     9    2    9 1   
    10    9   10 1   
    11    9   11 1   
    12    9   12 1   
    13    1   13 1   
    14    5   14 1   
    15    8   15 1   
@<TRIPOS>SUBSTRUCTURE
     1 MOL         1 TEMP              0 ****  ****    0 ROOT
