@<TRIPOS>MOLECULE
2-chloro-4-hydroxy-3,5-dimethoxy-benzaldehyde
   23    23     1     0     0
SMALL
No Charge or Current Charge


@<TRIPOS>ATOM
      1 C1          1.3510   -2.1260   -2.1500 c3        1 MOL      0.111500
      2 O1          1.9390   -1.0210   -1.4740 os        1 MOL     -0.344900
      3 C2          1.8850   -1.0360   -0.1120 ca        1 MOL      0.003800
      4 C3          2.9210   -1.6310    0.6080 ca        1 MOL     -0.058100
      5 C4          2.8780   -1.6520    2.0020 ca        1 MOL     -0.202400
      6 C5          1.8000   -1.0790    2.6760 ca        1 MOL      0.056500
      7 C6          0.7640   -0.4840    1.9550 ca        1 MOL      0.067700
      8 C7          0.8070   -0.4630    0.5610 ca        1 MOL      0.132200
      9 O2         -0.2050    0.1180   -0.1450 oh        1 MOL     -0.474800
     10 O3         -0.3000    0.0820    2.5960 os        1 MOL     -0.312200
     11 C8         -1.4160   -0.7620    2.8640 c3        1 MOL      0.112800
     12 Cl1         1.7360   -1.1010    4.4070 cl        1 MOL     -0.059300
     13 C9          3.9870   -2.2810    2.7090 c         1 MOL      0.582600
     14 O4          5.1530   -1.8970    2.6040 o         1 MOL     -0.506200
     15 H1          1.4610   -1.9940   -3.2290 h1        1 MOL      0.045500
     16 H2          0.2930   -2.1950   -1.8860 h1        1 MOL      0.045500
     17 H3          1.8610   -3.0430   -1.8440 h1        1 MOL      0.045500
     18 H4          3.7600   -2.0750    0.0770 ha        1 MOL      0.166500
     19 H5         -0.0290    0.0510   -1.0970 ho        1 MOL      0.438600
     20 H6         -2.1850   -0.1840    3.3750 h1        1 MOL      0.045300
     21 H7         -1.0900   -1.5980    3.4840 h1        1 MOL      0.045300
     22 H8         -1.8040   -1.1350    1.9160 h1        1 MOL      0.045300
     23 H9          3.7470   -3.1440    3.3650 h4        1 MOL      0.013000
@<TRIPOS>BOND
     1    1    2 1   
     2    2    3 1   
     3    3    8 ar  
     4    3    4 ar  
     5    4    5 ar  
     6    5    6 ar  
     7    6    7 ar  
     8    7    8 ar  
     9    8    9 1   
    10    7   10 1   
    11   10   11 1   
    12    6   12 1   
    13    5   13 1   
    14   13   14 2   
    15    1   15 1   
    16    1   16 1   
    17    1   17 1   
    18    4   18 1   
    19    9   19 1   
    20   11   20 1   
    21   11   21 1   
    22   11   22 1   
    23   13   23 1   
@<TRIPOS>SUBSTRUCTURE
     1 MOL         1 TEMP              0 ****  ****    0 ROOT
