@<TRIPOS>MOLECULE
ethyl
   23    22     1     0     0
SMALL
No Charge or Current Charge


@<TRIPOS>ATOM
      1 C1         -0.5100    0.9080    0.3410 c3        1 MOL     -0.097300
      2 C2         -0.5730    0.9580    1.8590 c3        1 MOL     -0.079000
      3 C3          0.8240    0.9590    2.4780 c3        1 MOL     -0.077400
      4 C4          0.7560    1.0090    4.0030 c3        1 MOL     -0.132100
      5 C5          2.1310    1.0100    4.6320 c         1 MOL      0.633300
      6 O1          3.1880    0.9760    4.0170 o         1 MOL     -0.537900
      7 O2          1.9960    1.0540    5.9910 os        1 MOL     -0.448200
      8 C6          3.2200    1.0590    6.7320 c3        1 MOL      0.135700
      9 C7          2.8900    1.1090    8.2050 c3        1 MOL     -0.129000
     10 H1         -1.5140    0.9080   -0.0940 hc        1 MOL      0.035300
     11 H2          0.0370    1.7690   -0.0570 hc        1 MOL      0.035300
     12 H3          0.0030   -0.0010    0.0130 hc        1 MOL      0.035300
     13 H4         -1.1180    1.8590    2.1670 hc        1 MOL      0.044500
     14 H5         -1.1420    0.0950    2.2230 hc        1 MOL      0.044500
     15 H6          1.3930    1.8200    2.1050 hc        1 MOL      0.053200
     16 H7          1.3690    0.0600    2.1620 hc        1 MOL      0.053200
     17 H8          0.2100    0.1360    4.3780 hc        1 MOL      0.078800
     18 H9          0.2350    1.9190    4.3200 hc        1 MOL      0.078800
     19 H10         3.7710    0.1510    6.4860 h1        1 MOL      0.065000
     20 H11         3.7970    1.9330    6.4310 h1        1 MOL      0.065000
     21 H12         3.8060    1.1140    8.8020 hc        1 MOL      0.047700
     22 H13         2.3070    2.0050    8.4440 hc        1 MOL      0.047700
     23 H14         2.2820    0.2470    8.4980 hc        1 MOL      0.047700
@<TRIPOS>BOND
     1    1    2 1   
     2    2    3 1   
     3    3    4 1   
     4    4    5 1   
     5    5    6 2   
     6    5    7 1   
     7    7    8 1   
     8    8    9 1   
     9    1   10 1   
    10    1   11 1   
    11    1   12 1   
    12    2   13 1   
    13    2   14 1   
    14    3   15 1   
    15    3   16 1   
    16    4   17 1   
    17    4   18 1   
    18    8   19 1   
    19    8   20 1   
    20    9   21 1   
    21    9   22 1   
    22    9   23 1   
@<TRIPOS>SUBSTRUCTURE
     1 MOL         1 TEMP              0 ****  ****    0 ROOT
