@<TRIPOS>MOLECULE
methylsulfanylbenzene
   16    16     1     0     0
SMALL
No Charge or Current Charge


@<TRIPOS>ATOM
      1 C1          1.9860   -2.7830   -2.2370 c3        1 MOL     -0.054000
      2 S1          1.9400   -1.0080   -1.8940 ss        1 MOL     -0.223800
      3 C2          1.8850   -1.0360   -0.1120 ca        1 MOL     -0.021800
      4 C3          2.9210   -1.6310    0.6080 ca        1 MOL     -0.093900
      5 C4          2.8780   -1.6520    2.0020 ca        1 MOL     -0.138000
      6 C5          1.8000   -1.0790    2.6760 ca        1 MOL     -0.112400
      7 C6          0.7640   -0.4840    1.9550 ca        1 MOL     -0.138000
      8 C7          0.8070   -0.4630    0.5610 ca        1 MOL     -0.093900
      9 H1          2.0230   -2.9520   -3.3160 h1        1 MOL      0.064400
     10 H2          1.0910   -3.2620   -1.8320 h1        1 MOL      0.064400
     11 H3          2.8700   -3.2280   -1.7750 h1        1 MOL      0.064400
     12 H4          3.7710   -2.0820    0.1010 ha        1 MOL      0.140500
     13 H5          3.6850   -2.1130    2.5640 ha        1 MOL      0.134400
     14 H6          1.7680   -1.0930    3.7610 ha        1 MOL      0.133000
     15 H7         -0.0750   -0.0360    2.4790 ha        1 MOL      0.134400
     16 H8         -0.0100    0.0060    0.0170 ha        1 MOL      0.140500
@<TRIPOS>BOND
     1    1    2 1   
     2    2    3 1   
     3    3    8 ar  
     4    3    4 ar  
     5    4    5 ar  
     6    5    6 ar  
     7    6    7 ar  
     8    7    8 ar  
     9    1    9 1   
    10    1   10 1   
    11    1   11 1   
    12    4   12 1   
    13    5   13 1   
    14    6   14 1   
    15    7   15 1   
    16    8   16 1   
@<TRIPOS>SUBSTRUCTURE
     1 MOL         1 TEMP              0 ****  ****    0 ROOT
