@<TRIPOS>MOLECULE
propanenitrile
    9     8     1     0     0
SMALL
No Charge or Current Charge


@<TRIPOS>ATOM
      1 C1          0.6420   -0.7480    0.4850 c3        1 MOL     -0.094500
      2 C2          1.1890   -0.1850    1.7560 c3        1 MOL     -0.022900
      3 C3          2.0230   -1.2470    2.3250 c1        1 MOL      0.209700
      4 N1          2.6860   -2.0830    2.7820 n1        1 MOL     -0.376200
      5 H1         -0.0050   -0.0290   -0.0310 hc        1 MOL      0.046500
      6 H2          1.4710   -0.9820   -0.1980 hc        1 MOL      0.046500
      7 H3          0.0950   -1.6820    0.6580 hc        1 MOL      0.046500
      8 H4          0.3740    0.0820    2.4370 hc        1 MOL      0.072100
      9 H5          1.7800    0.7130    1.5530 hc        1 MOL      0.072100
@<TRIPOS>BOND
     1    1    2 1   
     2    2    3 1   
     3    3    4 3   
     4    1    5 1   
     5    1    6 1   
     6    1    7 1   
     7    2    8 1   
     8    2    9 1   
@<TRIPOS>SUBSTRUCTURE
     1 MOL         1 TEMP              0 ****  ****    0 ROOT
