@<TRIPOS>MOLECULE
N3,N3-diethyl-2,4-dinitro-6-(trifluoromethyl)benzene-1,3-diamine
   35    35     1     0     0
SMALL
No Charge or Current Charge


@<TRIPOS>ATOM
      1 C1          3.6920   -0.3910   -3.0850 c3        1 MOL     -0.123800
      2 C2          2.5600    0.0880   -2.2420 c3        1 MOL      0.239500
      3 N1          1.9320   -1.0160   -1.5280 nh        1 MOL     -0.797900
      4 C3          1.3650   -2.1060   -2.3120 c3        1 MOL      0.239500
      5 C4          0.2920   -1.6000   -3.2030 c3        1 MOL     -0.123800
      6 C5          1.8850   -1.0360   -0.1120 ca        1 MOL      0.357200
      7 C6          2.9210   -1.6310    0.6080 ca        1 MOL     -0.245500
      8 C7          2.8780   -1.6520    2.0020 ca        1 MOL      0.038400
      9 C8          1.8000   -1.0790    2.6760 ca        1 MOL     -0.276700
     10 C9          0.7640   -0.4840    1.9550 ca        1 MOL      0.327200
     11 C10         0.8070   -0.4630    0.5610 ca        1 MOL     -0.281300
     12 N2         -0.2540    0.1450   -0.1760 no        1 MOL      0.320200
     13 O1         -0.1700    1.3620   -0.4560 o         1 MOL     -0.188100
     14 O2         -1.2300   -0.5600   -0.5170 o         1 MOL     -0.188100
     15 N3         -0.3270    0.0940    2.6480 nh        1 MOL     -0.849100
     16 C11         1.7820   -1.1170    4.1700 c3        1 MOL      0.697200
     17 F1          2.8720   -1.7350    4.7110 f         1 MOL     -0.231300
     18 F2          1.7490    0.1200    4.7450 f         1 MOL     -0.231300
     19 F3          0.6990   -1.7820    4.6620 f         1 MOL     -0.231300
     20 N4          4.0350   -2.2240   -0.0510 no        1 MOL      0.326500
     21 O3          5.0370   -1.5150   -0.3000 o         1 MOL     -0.187300
     22 O4          3.9780   -3.4360   -0.3620 o         1 MOL     -0.187300
     23 H1          4.1610    0.4430   -3.6190 hc        1 MOL      0.048800
     24 H2          4.4470   -0.8980   -2.4740 hc        1 MOL      0.048800
     25 H3          3.3240   -1.1060   -3.8300 hc        1 MOL      0.048800
     26 H4          1.7940    0.5630   -2.8630 h1        1 MOL      0.051800
     27 H5          2.9080    0.8100   -1.4980 h1        1 MOL      0.051800
     28 H6          2.1840   -2.5400   -2.8830 h1        1 MOL      0.051800
     29 H7          0.9850   -2.8380   -1.6020 h1        1 MOL      0.051800
     30 H8         -0.1430   -2.4090   -3.8000 hc        1 MOL      0.048800
     31 H9         -0.5000   -1.1070   -2.6300 hc        1 MOL      0.048800
     32 H10         0.7190   -0.8630   -3.8940 hc        1 MOL      0.048800
     33 H11         3.6840   -2.1150    2.5680 ha        1 MOL      0.180600
     34 H12        -1.0390    0.5580    2.1260 hn        1 MOL      0.458100
     35 H13        -0.3120    0.1080    3.6450 hn        1 MOL      0.458100
@<TRIPOS>BOND
     1    1    2 1   
     2    2    3 1   
     3    3    4 1   
     4    4    5 1   
     5    3    6 1   
     6    6   11 ar  
     7    6    7 ar  
     8    7    8 ar  
     9    8    9 ar  
    10    9   10 ar  
    11   10   11 ar  
    12   11   12 1   
    13   12   13 1   
    14   12   14 1   
    15   10   15 1   
    16    9   16 1   
    17   16   17 1   
    18   16   18 1   
    19   16   19 1   
    20    7   20 1   
    21   20   21 1   
    22   20   22 1   
    23    1   23 1   
    24    1   24 1   
    25    1   25 1   
    26    2   26 1   
    27    2   27 1   
    28    4   28 1   
    29    4   29 1   
    30    5   30 1   
    31    5   31 1   
    32    5   32 1   
    33    8   33 1   
    34   15   34 1   
    35   15   35 1   
@<TRIPOS>SUBSTRUCTURE
     1 MOL         1 TEMP              0 ****  ****    0 ROOT
