@<TRIPOS>MOLECULE
1-iodopentane
   17    16     1     0     0
SMALL
No Charge or Current Charge


@<TRIPOS>ATOM
      1 C1          2.1530   -1.3780   -1.4510 c3        1 MOL     -0.091900
      2 C2          1.2420   -0.2590   -0.9720 c3        1 MOL     -0.079700
      3 C3          0.4440   -0.6150    0.2840 c3        1 MOL     -0.080800
      4 C4         -0.4710    0.5160    0.7620 c3        1 MOL     -0.075700
      5 C5         -1.2420    0.1040    2.0170 c3        1 MOL      0.068200
      6 I1         -2.5160    1.6900    2.6750 i         1 MOL     -0.254000
      7 H1          2.7070   -1.0890   -2.3490 hc        1 MOL      0.034000
      8 H2          2.8860   -1.6230   -0.6750 hc        1 MOL      0.034000
      9 H3          1.5800   -2.2840   -1.6730 hc        1 MOL      0.034000
     10 H4          0.5590    0.0270   -1.7810 hc        1 MOL      0.039800
     11 H5          1.8590    0.6220   -0.7530 hc        1 MOL      0.039800
     12 H6          1.1550   -0.8620    1.0820 hc        1 MOL      0.041300
     13 H7         -0.1490   -1.5180    0.0980 hc        1 MOL      0.041300
     14 H8          0.1310    1.4090    0.9680 hc        1 MOL      0.053700
     15 H9         -1.1790    0.7810   -0.0320 hc        1 MOL      0.053700
     16 H10        -0.5420   -0.1550    2.8200 h1        1 MOL      0.071300
     17 H11        -1.8470   -0.7860    1.8110 h1        1 MOL      0.071300
@<TRIPOS>BOND
     1    1    2 1   
     2    2    3 1   
     3    3    4 1   
     4    4    5 1   
     5    5    6 1   
     6    1    7 1   
     7    1    8 1   
     8    1    9 1   
     9    2   10 1   
    10    2   11 1   
    11    3   12 1   
    12    3   13 1   
    13    4   14 1   
    14    4   15 1   
    15    5   16 1   
    16    5   17 1   
@<TRIPOS>SUBSTRUCTURE
     1 MOL         1 TEMP              0 ****  ****    0 ROOT
