@<TRIPOS>MOLECULE
1-benzylimidazole
   22    23     1     0     0
SMALL
No Charge or Current Charge


@<TRIPOS>ATOM
      1 C1          1.8850   -1.0360   -0.1120 ca        1 MOL     -0.117300
      2 C2          2.9210   -1.6310    0.6080 ca        1 MOL     -0.129100
      3 C3          2.8780   -1.6520    2.0020 ca        1 MOL     -0.108800
      4 C4          1.8000   -1.0790    2.6760 ca        1 MOL     -0.120200
      5 C5          0.7640   -0.4840    1.9550 ca        1 MOL     -0.108800
      6 C6          0.8070   -0.4630    0.5610 ca        1 MOL     -0.129100
      7 C7          1.7550   -1.1010    4.1660 c3        1 MOL      0.088600
      8 N1          2.3950    0.0820    4.7510 na        1 MOL     -0.207500
      9 C8          3.7160    0.2100    5.1000 cc        1 MOL     -0.255600
     10 C9          3.9720    1.4560    5.6220 cd        1 MOL      0.289800
     11 N2          2.7700    2.1040    5.5880 nd        1 MOL     -0.666900
     12 C10         1.8530    1.2390    5.0580 cc        1 MOL      0.390600
     13 H1          1.9180   -1.0210   -1.1980 ha        1 MOL      0.134600
     14 H2          3.7600   -2.0780    0.0840 ha        1 MOL      0.135800
     15 H3          3.6900   -2.1170    2.5550 ha        1 MOL      0.131900
     16 H4         -0.0800   -0.0350    2.4710 ha        1 MOL      0.131900
     17 H5         -0.0010   -0.0010    0.0000 ha        1 MOL      0.135800
     18 H6          0.7210   -1.1410    4.5440 h1        1 MOL      0.066100
     19 H7          2.2590   -1.9900    4.5780 h1        1 MOL      0.066100
     20 H8          4.3910   -0.6210    4.9450 h4        1 MOL      0.173900
     21 H9          4.8840    1.8960    5.9930 h4        1 MOL      0.040800
     22 H10         0.8110    1.4960    4.9170 h5        1 MOL      0.057300
@<TRIPOS>BOND
     1    1    6 ar  
     2    1    2 ar  
     3    2    3 ar  
     4    3    4 ar  
     5    4    5 ar  
     6    5    6 ar  
     7    4    7 1   
     8    7    8 1   
     9    8   12 1   
    10    8    9 1   
    11    9   10 2   
    12   10   11 1   
    13   11   12 2   
    14    1   13 1   
    15    2   14 1   
    16    3   15 1   
    17    5   16 1   
    18    6   17 1   
    19    7   18 1   
    20    7   19 1   
    21    9   20 1   
    22   10   21 1   
    23   12   22 1   
@<TRIPOS>SUBSTRUCTURE
     1 MOL         1 TEMP              0 ****  ****    0 ROOT
