@<TRIPOS>MOLECULE
acetamide
    9     8     1     0     0
SMALL
No Charge or Current Charge


@<TRIPOS>ATOM
      1 C1          0.0090   -1.0710   -0.2220 c3        1 MOL     -0.172800
      2 C2         -1.1140   -1.7340    0.5270 c         1 MOL      0.657200
      3 O1         -2.2910   -1.5800    0.2100 o         1 MOL     -0.613800
      4 N1         -0.6960   -2.4990    1.5900 n         1 MOL     -0.683200
      5 H1          0.2130   -0.0960    0.2310 hc        1 MOL      0.064600
      6 H2          0.9010   -1.6990   -0.1560 hc        1 MOL      0.064600
      7 H3         -0.2400   -0.9170   -1.2750 hc        1 MOL      0.064600
      8 H4         -1.3660   -2.9940    2.1700 hn        1 MOL      0.309400
      9 H5          0.2820   -2.6000    1.8410 hn        1 MOL      0.309400
@<TRIPOS>BOND
     1    1    2 1   
     2    2    3 2   
     3    2    4 1   
     4    1    5 1   
     5    1    6 1   
     6    1    7 1   
     7    4    8 1   
     8    4    9 1   
@<TRIPOS>SUBSTRUCTURE
     1 MOL         1 TEMP              0 ****  ****    0 ROOT
