@<TRIPOS>MOLECULE
(2R)-2-bromo-1,1,1,2-tetrafluoro-ethane
    8     7     1     0     0
SMALL
No Charge or Current Charge


@<TRIPOS>ATOM
      1 C1         -0.6040    0.4350   -0.0750 c3        1 MOL      0.198300
      2 H1         -1.5700   -0.0730   -0.1190 h2        1 MOL      0.116200
      3 C2          0.5410   -0.5400   -0.0400 c3        1 MOL      0.612000
      4 F1          0.5560   -1.3290   -1.1350 f         1 MOL     -0.216000
      5 F2          0.4880   -1.3350    1.0490 f         1 MOL     -0.216000
      6 F3          1.7200    0.1230   -0.0060 f         1 MOL     -0.216000
      7 F4         -0.4810    1.2250   -1.1730 f         1 MOL     -0.176700
      8 Br1        -0.6090    1.5410    1.5210 br        1 MOL     -0.101800
@<TRIPOS>BOND
     1    1    2 1   
     2    1    3 1   
     3    3    4 1   
     4    3    5 1   
     5    3    6 1   
     6    1    7 1   
     7    1    8 1   
@<TRIPOS>SUBSTRUCTURE
     1 MOL         1 TEMP              0 ****  ****    0 ROOT
