@<TRIPOS>MOLECULE
isobutyl
   20    19     1     0     0
SMALL
No Charge or Current Charge


@<TRIPOS>ATOM
      1 C1          0.9980   -0.3580   -0.2740 c3        1 MOL     -0.092300
      2 C2          1.8180    0.7470   -0.9440 c3        1 MOL     -0.093600
      3 C3          1.1580    1.1800   -2.2510 c3        1 MOL     -0.092300
      4 C4          1.9990    1.9490   -0.0130 c3        1 MOL      0.138400
      5 O1          2.6750    1.5480    1.1710 os        1 MOL     -0.452400
      6 C5          2.9010    2.5340    2.0910 c         1 MOL      0.638200
      7 O2          2.5760    3.7080    1.9820 o         1 MOL     -0.535000
      8 C6          3.6170    1.9670    3.2800 c3        1 MOL     -0.154500
      9 H1          1.4670   -0.6730    0.6640 hc        1 MOL      0.038000
     10 H2          0.9140   -1.2370   -0.9220 hc        1 MOL      0.038000
     11 H3         -0.0130   -0.0120   -0.0380 hc        1 MOL      0.038000
     12 H4          2.8080    0.3290   -1.1710 hc        1 MOL      0.055500
     13 H5          1.7380    1.9710   -2.7370 hc        1 MOL      0.038000
     14 H6          0.1510    1.5700   -2.0670 hc        1 MOL      0.038000
     15 H7          1.0740    0.3420   -2.9520 hc        1 MOL      0.038000
     16 H8          2.6000    2.7250   -0.4990 h1        1 MOL      0.067100
     17 H9          1.0320    2.3810    0.2670 h1        1 MOL      0.067100
     18 H10         4.6970    2.0360    3.1300 hc        1 MOL      0.075100
     19 H11         3.3140    0.9290    3.4360 hc        1 MOL      0.075100
     20 H12         3.3520    2.5440    4.1710 hc        1 MOL      0.075100
@<TRIPOS>BOND
     1    1    2 1   
     2    2    3 1   
     3    2    4 1   
     4    4    5 1   
     5    5    6 1   
     6    6    7 2   
     7    6    8 1   
     8    1    9 1   
     9    1   10 1   
    10    1   11 1   
    11    2   12 1   
    12    3   13 1   
    13    3   14 1   
    14    3   15 1   
    15    4   16 1   
    16    4   17 1   
    17    8   18 1   
    18    8   19 1   
    19    8   20 1   
@<TRIPOS>SUBSTRUCTURE
     1 MOL         1 TEMP              0 ****  ****    0 ROOT
