@<TRIPOS>MOLECULE
benzaldehyde
   14    14     1     0     0
SMALL
No Charge or Current Charge


@<TRIPOS>ATOM
      1 C1          1.8850   -1.0360   -0.1120 ca        1 MOL     -0.098600
      2 C2          2.9210   -1.6310    0.6080 ca        1 MOL     -0.145300
      3 C3          2.8780   -1.6520    2.0020 ca        1 MOL     -0.078200
      4 C4          1.8000   -1.0790    2.6760 ca        1 MOL     -0.198000
      5 C5          0.7640   -0.4840    1.9550 ca        1 MOL     -0.078200
      6 C6          0.8070   -0.4630    0.5610 ca        1 MOL     -0.145300
      7 C7          1.7550   -1.1010    4.1290 c         1 MOL      0.575900
      8 O1          2.6390   -1.6110    4.8230 o         1 MOL     -0.528200
      9 H1          1.9180   -1.0200   -1.1980 ha        1 MOL      0.135200
     10 H2          3.7610   -2.0780    0.0840 ha        1 MOL      0.137400
     11 H3          3.6910   -2.1180    2.5530 ha        1 MOL      0.144400
     12 H4         -0.0810   -0.0340    2.4700 ha        1 MOL      0.144400
     13 H5          0.0000    0.0000   -0.0000 ha        1 MOL      0.137400
     14 H6          0.8750   -0.6310    4.6210 h4        1 MOL     -0.002900
@<TRIPOS>BOND
     1    1    6 ar  
     2    1    2 ar  
     3    2    3 ar  
     4    3    4 ar  
     5    4    5 ar  
     6    5    6 ar  
     7    4    7 1   
     8    7    8 2   
     9    1    9 1   
    10    2   10 1   
    11    3   11 1   
    12    5   12 1   
    13    6   13 1   
    14    7   14 1   
@<TRIPOS>SUBSTRUCTURE
     1 MOL         1 TEMP              0 ****  ****    0 ROOT
