@<TRIPOS>MOLECULE
octan-1-amine
   28    27     1     0     0
SMALL
No Charge or Current Charge


@<TRIPOS>ATOM
      1 C1          4.0830   -1.0330    3.7440 c3        1 MOL     -0.091400
      2 C2          3.4620   -0.0560    2.7590 c3        1 MOL     -0.079400
      3 C3          4.4960    0.4650    1.7600 c3        1 MOL     -0.078500
      4 C4          3.8640    1.4480    0.7710 c3        1 MOL     -0.077300
      5 C5          4.8560    2.0030   -0.2560 c3        1 MOL     -0.078000
      6 C6          4.2830    2.9940   -1.2740 c3        1 MOL     -0.073700
      7 C7          5.3230    3.5130   -2.2720 c3        1 MOL     -0.121700
      8 C8          4.7300    4.4970   -3.2760 c3        1 MOL      0.157000
      9 N1          5.7060    4.9830   -4.2120 n3        1 MOL     -0.917800
     10 H1          3.3270   -1.3930    4.4490 hc        1 MOL      0.033200
     11 H2          4.5030   -1.9000    3.2240 hc        1 MOL      0.033200
     12 H3          4.8830   -0.5550    4.3190 hc        1 MOL      0.033200
     13 H4          3.0230    0.7820    3.3120 hc        1 MOL      0.037600
     14 H5          2.6460   -0.5540    2.2230 hc        1 MOL      0.037600
     15 H6          5.3120    0.9600    2.3000 hc        1 MOL      0.037800
     16 H7          4.9300   -0.3840    1.2200 hc        1 MOL      0.037800
     17 H8          3.0200    0.9710    0.2600 hc        1 MOL      0.039100
     18 H9          3.4450    2.2960    1.3280 hc        1 MOL      0.039100
     19 H10         5.6790    2.4880    0.2850 hc        1 MOL      0.038400
     20 H11         5.3030    1.1650   -0.8040 hc        1 MOL      0.038400
     21 H12         3.8130    3.8370   -0.7550 hc        1 MOL      0.040900
     22 H13         3.4790    2.4830   -1.8180 hc        1 MOL      0.040900
     23 H14         5.7750    2.6670   -2.8040 hc        1 MOL      0.037500
     24 H15         6.1270    4.0250   -1.7320 hc        1 MOL      0.037500
     25 H16         4.3300    5.3700   -2.7510 h1        1 MOL      0.050400
     26 H17         3.9160    4.0400   -3.8470 h1        1 MOL      0.050400
     27 H18         5.9260    4.4300   -5.0260 hn        1 MOL      0.348900
     28 H19         6.3000    5.7540   -3.9480 hn        1 MOL      0.348900
@<TRIPOS>BOND
     1    1    2 1   
     2    2    3 1   
     3    3    4 1   
     4    4    5 1   
     5    5    6 1   
     6    6    7 1   
     7    7    8 1   
     8    8    9 1   
     9    1   10 1   
    10    1   11 1   
    11    1   12 1   
    12    2   13 1   
    13    2   14 1   
    14    3   15 1   
    15    3   16 1   
    16    4   17 1   
    17    4   18 1   
    18    5   19 1   
    19    5   20 1   
    20    6   21 1   
    21    6   22 1   
    22    7   23 1   
    23    7   24 1   
    24    8   25 1   
    25    8   26 1   
    26    9   27 1   
    27    9   28 1   
@<TRIPOS>SUBSTRUCTURE
     1 MOL         1 TEMP              0 ****  ****    0 ROOT
