@<TRIPOS>MOLECULE
3,3-dimethylpentane
   23    22     1     0     0
SMALL
No Charge or Current Charge


@<TRIPOS>ATOM
      1 C1         -0.5080   -0.4810    0.8470 c3        1 MOL     -0.091500
      2 C2         -1.9970   -0.5980    0.5480 c3        1 MOL     -0.070100
      3 C3         -2.8410   -1.3570    1.6080 c3        1 MOL     -0.050700
      4 C4         -2.7380   -0.6450    2.9740 c3        1 MOL     -0.087700
      5 C5         -4.3190   -1.3070    1.1670 c3        1 MOL     -0.087700
      6 C6         -2.3930   -2.8310    1.8010 c3        1 MOL     -0.070100
      7 C7         -2.4710   -3.7150    0.5620 c3        1 MOL     -0.091500
      8 H1          0.0220    0.0640    0.0600 hc        1 MOL      0.033000
      9 H2         -0.0640   -1.4800    0.9100 hc        1 MOL      0.033000
     10 H3         -0.3240    0.0190    1.8020 hc        1 MOL      0.033000
     11 H4         -2.3990    0.4170    0.4300 hc        1 MOL      0.037800
     12 H5         -2.1140   -1.0780   -0.4320 hc        1 MOL      0.037800
     13 H6         -3.3270   -1.1660    3.7380 hc        1 MOL      0.033400
     14 H7         -3.0960    0.3880    2.9210 hc        1 MOL      0.033400
     15 H8         -1.7000   -0.6120    3.3230 hc        1 MOL      0.033400
     16 H9         -4.9720   -1.8270    1.8750 hc        1 MOL      0.033400
     17 H10        -4.6720   -0.2730    1.0800 hc        1 MOL      0.033400
     18 H11        -4.4540   -1.7850    0.1900 hc        1 MOL      0.033400
     19 H12        -1.3630   -2.8600    2.1780 hc        1 MOL      0.037800
     20 H13        -3.0080   -3.2940    2.5840 hc        1 MOL      0.037800
     21 H14        -2.1340   -4.7270    0.8080 hc        1 MOL      0.033000
     22 H15        -3.4950   -3.7930    0.1850 hc        1 MOL      0.033000
     23 H16        -1.8300   -3.3430   -0.2420 hc        1 MOL      0.033000
@<TRIPOS>BOND
     1    1    2 1   
     2    2    3 1   
     3    3    4 1   
     4    3    5 1   
     5    3    6 1   
     6    6    7 1   
     7    1    8 1   
     8    1    9 1   
     9    1   10 1   
    10    2   11 1   
    11    2   12 1   
    12    4   13 1   
    13    4   14 1   
    14    4   15 1   
    15    5   16 1   
    16    5   17 1   
    17    5   18 1   
    18    6   19 1   
    19    6   20 1   
    20    7   21 1   
    21    7   22 1   
    22    7   23 1   
@<TRIPOS>SUBSTRUCTURE
     1 MOL         1 TEMP              0 ****  ****    0 ROOT
