@<TRIPOS>MOLECULE
diethoxymethoxybenzene
   30    30     1     0     0
SMALL
No Charge or Current Charge


@<TRIPOS>ATOM
      1 C1          1.8750    0.7030    0.6560 c3        1 MOL     -0.110700
      2 C2          0.3670    0.6220    0.7620 c3        1 MOL      0.140500
      3 O1         -0.1710    1.9380    0.7370 os        1 MOL     -0.442400
      4 C3         -1.6090    1.9690    0.8330 c3        1 MOL      0.509500
      5 O2         -2.2390    1.2640   -0.2460 os        1 MOL     -0.442400
      6 C4         -2.2960    2.0350   -1.4390 c3        1 MOL      0.140500
      7 C5         -2.9730    1.2190   -2.5190 c3        1 MOL     -0.110700
      8 O3         -2.0310    1.4740    2.1150 os        1 MOL     -0.344600
      9 C6         -3.3710    1.4280    2.3910 ca        1 MOL      0.100000
     10 C7         -4.2350    2.3560    1.8080 ca        1 MOL     -0.148000
     11 C8         -5.6010    2.3090    2.0890 ca        1 MOL     -0.115500
     12 C9         -6.1020    1.3350    2.9520 ca        1 MOL     -0.141500
     13 C10        -5.2390    0.4070    3.5340 ca        1 MOL     -0.115500
     14 C11        -3.8730    0.4540    3.2540 ca        1 MOL     -0.148000
     15 H1          2.3210   -0.2960    0.6720 hc        1 MOL      0.048500
     16 H2          2.1700    1.2070   -0.2700 hc        1 MOL      0.048500
     17 H3          2.2890    1.2880    1.4830 hc        1 MOL      0.048500
     18 H4          0.0730    0.1390    1.6980 h1        1 MOL      0.037300
     19 H5         -0.0470    0.0560   -0.0780 h1        1 MOL      0.037300
     20 H6         -1.8650    3.0340    0.7770 h3        1 MOL      0.093800
     21 H7         -2.8600    2.9500   -1.2380 h1        1 MOL      0.037300
     22 H8         -1.2770    2.2970   -1.7360 h1        1 MOL      0.037300
     23 H9         -3.0330    1.7850   -3.4530 hc        1 MOL      0.048500
     24 H10        -2.4230    0.2900   -2.7030 hc        1 MOL      0.048500
     25 H11        -3.9850    0.9350   -2.2120 hc        1 MOL      0.048500
     26 H12        -3.8500    3.1160    1.1350 ha        1 MOL      0.146300
     27 H13        -6.2730    3.0300    1.6340 ha        1 MOL      0.134400
     28 H14        -7.1660    1.2970    3.1690 ha        1 MOL      0.133200
     29 H15        -5.6300   -0.3520    4.2060 ha        1 MOL      0.134400
     30 H16        -3.2050   -0.2710    3.7110 ha        1 MOL      0.146300
@<TRIPOS>BOND
     1    1    2 1   
     2    2    3 1   
     3    3    4 1   
     4    4    5 1   
     5    5    6 1   
     6    6    7 1   
     7    4    8 1   
     8    8    9 1   
     9    9   14 ar  
    10    9   10 ar  
    11   10   11 ar  
    12   11   12 ar  
    13   12   13 ar  
    14   13   14 ar  
    15    1   15 1   
    16    1   16 1   
    17    1   17 1   
    18    2   18 1   
    19    2   19 1   
    20    4   20 1   
    21    6   21 1   
    22    6   22 1   
    23    7   23 1   
    24    7   24 1   
    25    7   25 1   
    26   10   26 1   
    27   11   27 1   
    28   12   28 1   
    29   13   29 1   
    30   14   30 1   
@<TRIPOS>SUBSTRUCTURE
     1 MOL         1 TEMP              0 ****  ****    0 ROOT
