@<TRIPOS>MOLECULE
2-butoxyethanol
   22    21     1     0     0
SMALL
No Charge or Current Charge


@<TRIPOS>ATOM
      1 C1          0.3900   -1.0210   -0.0850 c3        1 MOL     -0.091900
      2 C2         -0.5800   -2.0240    0.5200 c3        1 MOL     -0.080200
      3 C3         -1.9310   -1.9920   -0.1890 c3        1 MOL     -0.080300
      4 C4         -2.9050   -2.9950    0.4140 c3        1 MOL      0.129400
      5 O1         -4.1380   -2.9160   -0.2880 os        1 MOL     -0.417600
      6 C5         -5.0930   -3.8320    0.2300 c3        1 MOL      0.090700
      7 C6         -6.3830   -3.7010   -0.5570 c3        1 MOL      0.125300
      8 O2         -6.8710   -2.3700   -0.4300 oh        1 MOL     -0.593600
      9 H1          1.3560   -1.0500    0.4300 hc        1 MOL      0.032500
     10 H2          0.5590   -1.2300   -1.1460 hc        1 MOL      0.032500
     11 H3         -0.0110   -0.0060    0.0030 hc        1 MOL      0.032500
     12 H4         -0.1470   -3.0290    0.4520 hc        1 MOL      0.046200
     13 H5         -0.7120   -1.7990    1.5850 hc        1 MOL      0.046200
     14 H6         -2.3650   -0.9870   -0.1340 hc        1 MOL      0.048900
     15 H7         -1.8040   -2.2070   -1.2570 hc        1 MOL      0.048900
     16 H8         -2.5190   -4.0160    0.3260 h1        1 MOL      0.028100
     17 H9         -3.0900   -2.7730    1.4700 h1        1 MOL      0.028100
     18 H10        -4.6800   -4.8420    0.1440 h1        1 MOL      0.030000
     19 H11        -5.2620   -3.5930    1.2840 h1        1 MOL      0.030000
     20 H12        -7.1490   -4.3820   -0.1740 h1        1 MOL      0.059000
     21 H13        -6.2080   -3.9020   -1.6170 h1        1 MOL      0.059000
     22 H14        -7.6930   -2.3240   -0.9440 ho        1 MOL      0.396300
@<TRIPOS>BOND
     1    1    2 1   
     2    2    3 1   
     3    3    4 1   
     4    4    5 1   
     5    5    6 1   
     6    6    7 1   
     7    7    8 1   
     8    1    9 1   
     9    1   10 1   
    10    1   11 1   
    11    2   12 1   
    12    2   13 1   
    13    3   14 1   
    14    3   15 1   
    15    4   16 1   
    16    4   17 1   
    17    6   18 1   
    18    6   19 1   
    19    7   20 1   
    20    7   21 1   
    21    8   22 1   
@<TRIPOS>SUBSTRUCTURE
     1 MOL         1 TEMP              0 ****  ****    0 ROOT
