@<TRIPOS>MOLECULE
heptanal
   22    21     1     0     0
SMALL
No Charge or Current Charge


@<TRIPOS>ATOM
      1 C1         -3.5180   -0.1720    0.1190 c3        1 MOL     -0.092100
      2 C2         -2.1810    0.2200   -0.4870 c3        1 MOL     -0.080100
      3 C3         -1.0130   -0.3840    0.2930 c3        1 MOL     -0.078900
      4 C4          0.3310    0.0140   -0.3210 c3        1 MOL     -0.077200
      5 C5          1.5000   -0.5920    0.4620 c3        1 MOL     -0.075600
      6 C6          2.8530   -0.2110   -0.1300 c3        1 MOL     -0.196900
      7 C7          3.9860   -0.8170    0.6560 c         1 MOL      0.561200
      8 O1          3.8180   -1.5250    1.6440 o         1 MOL     -0.525200
      9 H1         -4.3390    0.2700   -0.4540 hc        1 MOL      0.033500
     10 H2         -3.5980    0.1790    1.1530 hc        1 MOL      0.033500
     11 H3         -3.6480   -1.2590    0.1150 hc        1 MOL      0.033500
     12 H4         -2.0970    1.3130   -0.4970 hc        1 MOL      0.037300
     13 H5         -2.1460   -0.1180   -1.5300 hc        1 MOL      0.037300
     14 H6         -1.0550   -0.0460    1.3360 hc        1 MOL      0.041700
     15 H7         -1.1040   -1.4770    0.3030 hc        1 MOL      0.041700
     16 H8          0.3720   -0.3260   -1.3630 hc        1 MOL      0.037600
     17 H9          0.4150    1.1070   -0.3340 hc        1 MOL      0.037600
     18 H10         1.4100   -1.6840    0.4530 hc        1 MOL      0.054000
     19 H11         1.4440   -0.2720    1.5100 hc        1 MOL      0.054000
     20 H12         2.9770    0.8760   -0.1660 hc        1 MOL      0.065900
     21 H13         2.9300   -0.5950   -1.1530 hc        1 MOL      0.065900
     22 H14         5.0030   -0.5540    0.3170 h4        1 MOL     -0.008500
@<TRIPOS>BOND
     1    1    2 1   
     2    2    3 1   
     3    3    4 1   
     4    4    5 1   
     5    5    6 1   
     6    6    7 1   
     7    7    8 2   
     8    1    9 1   
     9    1   10 1   
    10    1   11 1   
    11    2   12 1   
    12    2   13 1   
    13    3   14 1   
    14    3   15 1   
    15    4   16 1   
    16    4   17 1   
    17    5   18 1   
    18    5   19 1   
    19    6   20 1   
    20    6   21 1   
    21    7   22 1   
@<TRIPOS>SUBSTRUCTURE
     1 MOL         1 TEMP              0 ****  ****    0 ROOT
