@<TRIPOS>MOLECULE
3-methoxyaniline
   18    18     1     0     0
SMALL
No Charge or Current Charge


@<TRIPOS>ATOM
      1 C1          3.0580   -1.6210   -2.0880 c3        1 MOL      0.111600
      2 O1          1.9260   -1.0160   -1.4730 os        1 MOL     -0.326100
      3 C2          1.8850   -1.0360   -0.1120 ca        1 MOL      0.156800
      4 C3          2.9210   -1.6310    0.6080 ca        1 MOL     -0.247300
      5 C4          2.8780   -1.6520    2.0020 ca        1 MOL     -0.061200
      6 C5          1.8000   -1.0790    2.6760 ca        1 MOL     -0.222900
      7 C6          0.7640   -0.4840    1.9550 ca        1 MOL      0.170100
      8 C7          0.8070   -0.4630    0.5610 ca        1 MOL     -0.221700
      9 N1         -0.3270    0.0960    2.6360 nh        1 MOL     -0.821500
     10 H1          2.9700   -1.5380   -3.1740 h1        1 MOL      0.044200
     11 H2          3.1150   -2.6720   -1.7950 h1        1 MOL      0.044200
     12 H3          3.9610   -1.1030   -1.7570 h1        1 MOL      0.044200
     13 H4          3.7640   -2.0790    0.0890 ha        1 MOL      0.136500
     14 H5          3.6850   -2.1150    2.5630 ha        1 MOL      0.129400
     15 H6          1.7770   -1.1000    3.7620 ha        1 MOL      0.132200
     16 H7          0.0020   -0.0000   -0.0060 ha        1 MOL      0.148200
     17 H8         -0.3690    0.0330    3.6330 hn        1 MOL      0.391600
     18 H9         -1.0850    0.4770    2.1070 hn        1 MOL      0.391600
@<TRIPOS>BOND
     1    1    2 1   
     2    2    3 1   
     3    3    8 ar  
     4    3    4 ar  
     5    4    5 ar  
     6    5    6 ar  
     7    6    7 ar  
     8    7    8 ar  
     9    7    9 1   
    10    1   10 1   
    11    1   11 1   
    12    1   12 1   
    13    4   13 1   
    14    5   14 1   
    15    6   15 1   
    16    8   16 1   
    17    9   17 1   
    18    9   18 1   
@<TRIPOS>SUBSTRUCTURE
     1 MOL         1 TEMP              0 ****  ****    0 ROOT
