@<TRIPOS>MOLECULE
(2R)-2-methylbutan-1-ol
   18    17     1     0     0
SMALL
No Charge or Current Charge


@<TRIPOS>ATOM
      1 C1          1.9480   -0.4270   -1.8510 c3        1 MOL     -0.091400
      2 C2          2.1270    0.0760   -0.4260 c3        1 MOL     -0.075700
      3 C3          2.2500    1.6090   -0.3260 c3        1 MOL     -0.060400
      4 H1          1.3340    2.0580   -0.7310 hc        1 MOL      0.043900
      5 C4          2.3510    2.0130    1.1490 c3        1 MOL     -0.088700
      6 C5          3.4400    2.1790   -1.1100 c3        1 MOL      0.133500
      7 O1          4.6640    1.6400   -0.6320 oh        1 MOL     -0.598400
      8 H2          1.8640   -1.5170   -1.8840 hc        1 MOL      0.031700
      9 H3          1.0540    0.0050   -2.3120 hc        1 MOL      0.031700
     10 H4          2.8120   -0.1440   -2.4600 hc        1 MOL      0.031700
     11 H5          3.0360   -0.3810   -0.0160 hc        1 MOL      0.047000
     12 H6          1.2940   -0.2830    0.1890 hc        1 MOL      0.047000
     13 H7          2.4400    3.0980    1.2650 hc        1 MOL      0.037500
     14 H8          3.2230    1.5480    1.6210 hc        1 MOL      0.037500
     15 H9          1.4630    1.6870    1.7020 hc        1 MOL      0.037500
     16 H10         3.4820    3.2690   -1.0210 h1        1 MOL      0.019300
     17 H11         3.3480    1.9350   -2.1740 h1        1 MOL      0.019300
     18 H12         5.3720    2.0370   -1.1650 ho        1 MOL      0.396800
@<TRIPOS>BOND
     1    1    2 1   
     2    2    3 1   
     3    3    4 1   
     4    3    5 1   
     5    3    6 1   
     6    6    7 1   
     7    1    8 1   
     8    1    9 1   
     9    1   10 1   
    10    2   11 1   
    11    2   12 1   
    12    5   13 1   
    13    5   14 1   
    14    5   15 1   
    15    6   16 1   
    16    6   17 1   
    17    7   18 1   
@<TRIPOS>SUBSTRUCTURE
     1 MOL         1 TEMP              0 ****  ****    0 ROOT
