@<TRIPOS>MOLECULE
2,6-dimethylpyridine
   17    17     1     0     0
SMALL
No Charge or Current Charge


@<TRIPOS>ATOM
      1 C1          0.9810   -2.1310    4.7570 c3        1 MOL     -0.150100
      2 C2          0.7300   -1.5160    3.4210 ca        1 MOL      0.418400
      3 C3          1.6520   -0.6230    2.9000 ca        1 MOL     -0.255000
      4 C4          1.3880   -0.0680    1.6520 ca        1 MOL     -0.086800
      5 C5          0.2270   -0.4200    0.9730 ca        1 MOL     -0.255000
      6 C6         -0.6320   -1.3220    1.5800 ca        1 MOL      0.418400
      7 N1         -0.4090   -1.8820    2.7910 nb        1 MOL     -0.674400
      8 C7         -1.8870   -1.7230    0.8800 c3        1 MOL     -0.150100
      9 H1          1.5430   -3.0630    4.6410 hc        1 MOL      0.052700
     10 H2          1.5510   -1.4510    5.3990 hc        1 MOL      0.052700
     11 H3          0.0380   -2.3470    5.2710 hc        1 MOL      0.052700
     12 H4          2.5550   -0.3580    3.4390 ha        1 MOL      0.141100
     13 H5          2.0850    0.6370    1.2100 ha        1 MOL      0.135700
     14 H6          0.0080    0.0060   -0.0000 ha        1 MOL      0.141100
     15 H7         -1.7090   -2.6030    0.2510 hc        1 MOL      0.052700
     16 H8         -2.6830   -1.9620    1.5970 hc        1 MOL      0.052700
     17 H9         -2.2650   -0.9110    0.2460 hc        1 MOL      0.052700
@<TRIPOS>BOND
     1    1    2 1   
     2    2    7 ar  
     3    2    3 ar  
     4    3    4 ar  
     5    4    5 ar  
     6    5    6 ar  
     7    6    7 ar  
     8    6    8 1   
     9    1    9 1   
    10    1   10 1   
    11    1   11 1   
    12    3   12 1   
    13    4   13 1   
    14    5   14 1   
    15    8   15 1   
    16    8   16 1   
    17    8   17 1   
@<TRIPOS>SUBSTRUCTURE
     1 MOL         1 TEMP              0 ****  ****    0 ROOT
