@<TRIPOS>MOLECULE
2-phenylethanol
   19    19     1     0     0
SMALL
No Charge or Current Charge


@<TRIPOS>ATOM
      1 C1          1.8850   -1.0360   -0.1120 ca        1 MOL     -0.131700
      2 C2          2.9210   -1.6310    0.6080 ca        1 MOL     -0.131700
      3 C3          2.8780   -1.6520    2.0020 ca        1 MOL     -0.118500
      4 C4          1.8000   -1.0790    2.6760 ca        1 MOL     -0.074700
      5 C5          0.7640   -0.4840    1.9550 ca        1 MOL     -0.118500
      6 C6          0.8070   -0.4630    0.5610 ca        1 MOL     -0.131700
      7 C7          1.7550   -1.1010    4.1660 c3        1 MOL     -0.037100
      8 C8          1.0570   -2.3420    4.7290 c3        1 MOL      0.135300
      9 O1          1.7460   -3.5110    4.3040 oh        1 MOL     -0.596800
     10 H1          1.9180   -1.0210   -1.1980 ha        1 MOL      0.128100
     11 H2          3.7600   -2.0780    0.0840 ha        1 MOL      0.129200
     12 H3          3.6900   -2.1170    2.5550 ha        1 MOL      0.132900
     13 H4         -0.0800   -0.0350    2.4710 ha        1 MOL      0.132900
     14 H5         -0.0010   -0.0010    0.0000 ha        1 MOL      0.129200
     15 H6          2.7750   -1.0440    4.5760 hc        1 MOL      0.054800
     16 H7          1.2280   -0.2070    4.5330 hc        1 MOL      0.054800
     17 H8          1.0770   -2.3210    5.8230 h1        1 MOL      0.022300
     18 H9          0.0160   -2.4050    4.3960 h1        1 MOL      0.022300
     19 H10         1.2710   -4.2680    4.6830 ho        1 MOL      0.398800
@<TRIPOS>BOND
     1    1    6 ar  
     2    1    2 ar  
     3    2    3 ar  
     4    3    4 ar  
     5    4    5 ar  
     6    5    6 ar  
     7    4    7 1   
     8    7    8 1   
     9    8    9 1   
    10    1   10 1   
    11    2   11 1   
    12    3   12 1   
    13    5   13 1   
    14    6   14 1   
    15    7   15 1   
    16    7   16 1   
    17    8   17 1   
    18    8   18 1   
    19    9   19 1   
@<TRIPOS>SUBSTRUCTURE
     1 MOL         1 TEMP              0 ****  ****    0 ROOT
