@<TRIPOS>MOLECULE
(3R)-3-methylhexane
   23    22     1     0     0
SMALL
No Charge or Current Charge


@<TRIPOS>ATOM
      1 C1          0.0170    0.6230   -0.8540 c3        1 MOL     -0.092100
      2 C2          0.5360   -0.1290   -2.0710 c3        1 MOL     -0.080200
      3 C3          1.9780   -0.5960   -1.8600 c3        1 MOL     -0.072700
      4 C4          2.5980   -1.3720   -3.0420 c3        1 MOL     -0.062500
      5 H1          3.6210   -1.6350   -2.7420 hc        1 MOL      0.042800
      6 C5          2.7130   -0.4920   -4.2910 c3        1 MOL     -0.090700
      7 C6          1.8670   -2.6770   -3.4090 c3        1 MOL     -0.076900
      8 C7          1.8190   -3.6910   -2.2760 c3        1 MOL     -0.092200
      9 H2         -1.0150    0.9560   -1.0080 hc        1 MOL      0.032100
     10 H3          0.6340    1.5020   -0.6430 hc        1 MOL      0.032100
     11 H4          0.0360   -0.0240    0.0280 hc        1 MOL      0.032100
     12 H5         -0.1200   -0.9860   -2.2580 hc        1 MOL      0.039500
     13 H6          0.4700    0.5300   -2.9420 hc        1 MOL      0.039500
     14 H7          2.6070    0.2730   -1.6310 hc        1 MOL      0.037700
     15 H8          2.0180   -1.2330   -0.9660 hc        1 MOL      0.037700
     16 H9          3.1540   -1.0510   -5.1230 hc        1 MOL      0.033200
     17 H10         1.7380   -0.1110   -4.6110 hc        1 MOL      0.033200
     18 H11         3.3580    0.3720   -4.0940 hc        1 MOL      0.033200
     19 H12         2.3250   -3.1410   -4.2910 hc        1 MOL      0.038300
     20 H13         0.8350   -2.4350   -3.6920 hc        1 MOL      0.038300
     21 H14         1.2940   -4.6030   -2.5730 hc        1 MOL      0.032600
     22 H15         1.2870   -3.2690   -1.4170 hc        1 MOL      0.032600
     23 H16         2.8280   -3.9620   -1.9480 hc        1 MOL      0.032600
@<TRIPOS>BOND
     1    1    2 1   
     2    2    3 1   
     3    3    4 1   
     4    4    5 1   
     5    4    6 1   
     6    4    7 1   
     7    7    8 1   
     8    1    9 1   
     9    1   10 1   
    10    1   11 1   
    11    2   12 1   
    12    2   13 1   
    13    3   14 1   
    14    3   15 1   
    15    6   16 1   
    16    6   17 1   
    17    6   18 1   
    18    7   19 1   
    19    7   20 1   
    20    8   21 1   
    21    8   22 1   
    22    8   23 1   
@<TRIPOS>SUBSTRUCTURE
     1 MOL         1 TEMP              0 ****  ****    0 ROOT
