@<TRIPOS>MOLECULE
methanamine
    7     6     1     0     0
SMALL
No Charge or Current Charge


@<TRIPOS>ATOM
      1 C1         -0.6180   -0.7480    0.5040 c3        1 MOL      0.153100
      2 N1         -1.8490   -0.9390   -0.2110 n3        1 MOL     -0.928800
      3 H1         -0.2700   -1.7000    0.9140 h1        1 MOL      0.025200
      4 H2         -0.7640   -0.0430    1.3270 h1        1 MOL      0.025200
      5 H3          0.1500   -0.3500   -0.1650 h1        1 MOL      0.025200
      6 H4         -2.7180   -0.9540    0.3000 hn        1 MOL      0.350100
      7 H5         -1.8190   -1.2560   -1.1680 hn        1 MOL      0.350100
@<TRIPOS>BOND
     1    1    2 1   
     2    1    3 1   
     3    1    4 1   
     4    1    5 1   
     5    2    6 1   
     6    2    7 1   
@<TRIPOS>SUBSTRUCTURE
     1 MOL         1 TEMP              0 ****  ****    0 ROOT
