@<TRIPOS>MOLECULE
octanal
   25    24     1     0     0
SMALL
No Charge or Current Charge


@<TRIPOS>ATOM
      1 C1          1.0100   -3.8430   -1.0280 c3        1 MOL     -0.091700
      2 C2          0.0930   -2.6480   -0.8230 c3        1 MOL     -0.079700
      3 C3          0.8100   -1.5090   -0.0990 c3        1 MOL     -0.078600
      4 C4         -0.1160   -0.3080    0.1050 c3        1 MOL     -0.077300
      5 C5          0.6050    0.8310    0.8300 c3        1 MOL     -0.077200
      6 C6         -0.2790    2.0590    1.0600 c3        1 MOL     -0.075400
      7 C7          0.4400    3.1950    1.7830 c3        1 MOL     -0.197700
      8 C8         -0.4500    4.3970    2.0000 c         1 MOL      0.562500
      9 O1         -1.6210    4.4730    1.6440 o         1 MOL     -0.523800
     10 H1          0.4880   -4.6540   -1.5470 hc        1 MOL      0.033000
     11 H2          1.3560   -4.2250   -0.0630 hc        1 MOL      0.033000
     12 H3          1.8890   -3.5670   -1.6190 hc        1 MOL      0.033000
     13 H4         -0.7840   -2.9630   -0.2460 hc        1 MOL      0.038700
     14 H5         -0.2680   -2.3000   -1.7980 hc        1 MOL      0.038700
     15 H6          1.1740   -1.8630    0.8730 hc        1 MOL      0.037600
     16 H7          1.6890   -1.2000   -0.6790 hc        1 MOL      0.037600
     17 H8         -0.9940   -0.6170    0.6860 hc        1 MOL      0.041500
     18 H9         -0.4760    0.0360   -0.8710 hc        1 MOL      0.041500
     19 H10         1.5000    1.1210    0.2660 hc        1 MOL      0.037600
     20 H11         0.9510    0.4710    1.8070 hc        1 MOL      0.037600
     21 H12        -0.6710    2.4180    0.1010 hc        1 MOL      0.053800
     22 H13        -1.1500    1.7490    1.6510 hc        1 MOL      0.053800
     23 H14         0.7860    2.8630    2.7680 hc        1 MOL      0.065800
     24 H15         1.3070    3.5380    1.2110 hc        1 MOL      0.065800
     25 H16         0.0340    5.2450    2.5140 h4        1 MOL     -0.010200
@<TRIPOS>BOND
     1    1    2 1   
     2    2    3 1   
     3    3    4 1   
     4    4    5 1   
     5    5    6 1   
     6    6    7 1   
     7    7    8 1   
     8    8    9 2   
     9    1   10 1   
    10    1   11 1   
    11    1   12 1   
    12    2   13 1   
    13    2   14 1   
    14    3   15 1   
    15    3   16 1   
    16    4   17 1   
    17    4   18 1   
    18    5   19 1   
    19    5   20 1   
    20    6   21 1   
    21    6   22 1   
    22    7   23 1   
    23    7   24 1   
    24    8   25 1   
@<TRIPOS>SUBSTRUCTURE
     1 MOL         1 TEMP              0 ****  ****    0 ROOT
