@<TRIPOS>MOLECULE
1-bromoheptane
   23    22     1     0     0
SMALL
No Charge or Current Charge


@<TRIPOS>ATOM
      1 C1         -3.6400    0.4970    0.5280 c3        1 MOL     -0.092400
      2 C2         -2.1630    0.6280    0.8620 c3        1 MOL     -0.079900
      3 C3         -1.2840    0.0890   -0.2660 c3        1 MOL     -0.078900
      4 C4          0.2020    0.2220    0.0740 c3        1 MOL     -0.077300
      5 C5          1.0800   -0.3190   -1.0570 c3        1 MOL     -0.079900
      6 C6          2.5790   -0.2080   -0.7660 c3        1 MOL     -0.081000
      7 C7          3.4450   -0.7470   -1.8930 c3        1 MOL     -0.009100
      8 Br1         5.3270   -0.5590   -1.4210 br        1 MOL     -0.178500
      9 H1         -4.2500    0.8890    1.3480 hc        1 MOL      0.033400
     10 H2         -3.8890    1.0590   -0.3780 hc        1 MOL      0.033400
     11 H3         -3.9160   -0.5500    0.3700 hc        1 MOL      0.033400
     12 H4         -1.9540    0.0830    1.7900 hc        1 MOL      0.039000
     13 H5         -1.9270    1.6830    1.0450 hc        1 MOL      0.039000
     14 H6         -1.5000    0.6350   -1.1920 hc        1 MOL      0.039200
     15 H7         -1.5260   -0.9660   -0.4480 hc        1 MOL      0.039200
     16 H8          0.4080   -0.3230    1.0020 hc        1 MOL      0.041300
     17 H9          0.4440    1.2760    0.2550 hc        1 MOL      0.041300
     18 H10         0.8680    0.2420   -1.9750 hc        1 MOL      0.041300
     19 H11         0.8210   -1.3650   -1.2590 hc        1 MOL      0.041300
     20 H12         2.8160    0.8500   -0.5950 hc        1 MOL      0.055900
     21 H13         2.8110   -0.7310    0.1710 hc        1 MOL      0.055900
     22 H14         3.2850   -1.8130   -2.0710 h1        1 MOL      0.071800
     23 H15         3.3010   -0.1920   -2.8230 h1        1 MOL      0.071800
@<TRIPOS>BOND
     1    1    2 1   
     2    2    3 1   
     3    3    4 1   
     4    4    5 1   
     5    5    6 1   
     6    6    7 1   
     7    7    8 1   
     8    1    9 1   
     9    1   10 1   
    10    1   11 1   
    11    2   12 1   
    12    2   13 1   
    13    3   14 1   
    14    3   15 1   
    15    4   16 1   
    16    4   17 1   
    17    5   18 1   
    18    5   19 1   
    19    6   20 1   
    20    6   21 1   
    21    7   22 1   
    22    7   23 1   
@<TRIPOS>SUBSTRUCTURE
     1 MOL         1 TEMP              0 ****  ****    0 ROOT
