@<TRIPOS>MOLECULE
butanal
   13    12     1     0     0
SMALL
No Charge or Current Charge


@<TRIPOS>ATOM
      1 C1         -1.2660   -1.0580    0.6900 c3        1 MOL     -0.093100
      2 C2         -0.6330   -0.0320   -0.2350 c3        1 MOL     -0.076900
      3 C3          0.8300    0.2080    0.1140 c3        1 MOL     -0.198000
      4 C4          1.4840    1.2250   -0.7900 c         1 MOL      0.563100
      5 O1          0.9200    1.8060   -1.7110 o         1 MOL     -0.524900
      6 H1         -2.3170   -1.2250    0.4320 hc        1 MOL      0.034400
      7 H2         -0.7410   -2.0150    0.6100 hc        1 MOL      0.034400
      8 H3         -1.2160   -0.7300    1.7330 hc        1 MOL      0.034400
      9 H4         -1.1930    0.9090   -0.1690 hc        1 MOL      0.052900
     10 H5         -0.7190   -0.3780   -1.2720 hc        1 MOL      0.052900
     11 H6          0.9230    0.5750    1.1430 hc        1 MOL      0.066000
     12 H7          1.4020   -0.7220    0.0300 hc        1 MOL      0.066000
     13 H8          2.5460    1.4280   -0.5700 h4        1 MOL     -0.011100
@<TRIPOS>BOND
     1    1    2 1   
     2    2    3 1   
     3    3    4 1   
     4    4    5 2   
     5    1    6 1   
     6    1    7 1   
     7    1    8 1   
     8    2    9 1   
     9    2   10 1   
    10    3   11 1   
    11    3   12 1   
    12    4   13 1   
@<TRIPOS>SUBSTRUCTURE
     1 MOL         1 TEMP              0 ****  ****    0 ROOT
