@<TRIPOS>MOLECULE
heptan-1-amine
   25    24     1     0     0
SMALL
No Charge or Current Charge


@<TRIPOS>ATOM
      1 C1          0.6870   -0.7200    0.0950 c3        1 MOL     -0.092400
      2 C2          0.1580   -2.1000   -0.2610 c3        1 MOL     -0.078800
      3 C3         -0.2980   -2.1670   -1.7190 c3        1 MOL     -0.078700
      4 C4         -0.8290   -3.5590   -2.0700 c3        1 MOL     -0.079000
      5 C5         -1.3010   -3.6830   -3.5210 c3        1 MOL     -0.072100
      6 C6         -1.8320   -5.0750   -3.8720 c3        1 MOL     -0.121200
      7 C7         -2.2870   -5.1380   -5.3300 c3        1 MOL      0.151100
      8 N1         -2.7890   -6.4700   -5.6470 n3        1 MOL     -0.909000
      9 H1          1.0110   -0.6810    1.1390 hc        1 MOL      0.032700
     10 H2          1.5380   -0.4500   -0.5400 hc        1 MOL      0.032700
     11 H3         -0.0950    0.0340   -0.0470 hc        1 MOL      0.032700
     12 H4          0.9440   -2.8430   -0.0820 hc        1 MOL      0.037800
     13 H5         -0.6790   -2.3470    0.4030 hc        1 MOL      0.037800
     14 H6          0.5420   -1.9170   -2.3780 hc        1 MOL      0.039300
     15 H7         -1.0770   -1.4150   -1.8840 hc        1 MOL      0.039300
     16 H8         -0.0340   -4.2970   -1.9050 hc        1 MOL      0.038700
     17 H9         -1.6500   -3.8240   -1.3920 hc        1 MOL      0.038700
     18 H10        -2.0730   -2.9300   -3.7230 hc        1 MOL      0.041600
     19 H11        -0.4530   -3.4480   -4.1760 hc        1 MOL      0.041600
     20 H12        -1.0470   -5.8210   -3.6950 hc        1 MOL      0.038100
     21 H13        -2.6750   -5.3290   -3.2200 hc        1 MOL      0.038100
     22 H14        -3.0810   -4.4050   -5.5090 h1        1 MOL      0.051900
     23 H15        -1.4530   -4.8970   -5.9990 h1        1 MOL      0.051900
     24 H16        -3.7360   -6.6850   -5.4130 hn        1 MOL      0.343500
     25 H17        -2.1290   -7.1760   -5.8930 hn        1 MOL      0.343500
@<TRIPOS>BOND
     1    1    2 1   
     2    2    3 1   
     3    3    4 1   
     4    4    5 1   
     5    5    6 1   
     6    6    7 1   
     7    7    8 1   
     8    1    9 1   
     9    1   10 1   
    10    1   11 1   
    11    2   12 1   
    12    2   13 1   
    13    3   14 1   
    14    3   15 1   
    15    4   16 1   
    16    4   17 1   
    17    5   18 1   
    18    5   19 1   
    19    6   20 1   
    20    6   21 1   
    21    7   22 1   
    22    7   23 1   
    23    8   24 1   
    24    8   25 1   
@<TRIPOS>SUBSTRUCTURE
     1 MOL         1 TEMP              0 ****  ****    0 ROOT
