@<TRIPOS>MOLECULE
diethoxy-thioxo-[(3,5,6-trichloro-2-pyridyl)oxy]-$l^{5}-phosphane
   29    29     1     0     0
SMALL
No Charge or Current Charge


@<TRIPOS>ATOM
      1 C1          2.6940   -0.1500   -0.3080 c3        1 MOL     -0.116600
      2 C2          1.7990   -1.1310   -1.0340 c3        1 MOL      0.150800
      3 O1          0.8700   -0.4090   -1.8260 os        1 MOL     -0.518000
      4 P1         -0.2260   -1.2120   -2.7240 p5        1 MOL      1.237200
      5 S1         -1.4490   -2.3690   -1.7410 s         1 MOL     -0.604100
      6 O2          0.7380   -1.9140   -3.8320 os        1 MOL     -0.518000
      7 C3          0.1880   -2.3660   -5.0580 c3        1 MOL      0.150800
      8 C4          1.2900   -2.9740   -5.9000 c3        1 MOL     -0.116600
      9 O3         -0.8840    0.0040   -3.5710 os        1 MOL     -0.556300
     10 C5         -1.5330    1.0950   -3.0580 ca        1 MOL      0.653600
     11 C6         -2.0480    2.0600   -3.9080 ca        1 MOL     -0.082100
     12 C7         -2.6960    3.1500   -3.3380 ca        1 MOL     -0.067500
     13 C8         -2.8080    3.2400   -1.9540 ca        1 MOL     -0.092700
     14 C9         -2.2590    2.2210   -1.1920 ca        1 MOL      0.512600
     15 N1         -1.6220    1.1470   -1.7100 nb        1 MOL     -0.649200
     16 Cl1        -2.3230    2.1970    0.5290 cl        1 MOL     -0.102200
     17 Cl2        -3.6140    4.5970   -1.2670 cl        1 MOL     -0.027700
     18 Cl3        -1.9060    1.9440   -5.6180 cl        1 MOL     -0.030500
     19 H1          3.4250   -0.6760    0.3140 hc        1 MOL      0.055800
     20 H2          3.2290    0.4850   -1.0210 hc        1 MOL      0.055800
     21 H3          2.1020    0.5150    0.3290 hc        1 MOL      0.055800
     22 H4          1.2470   -1.7490   -0.3200 h1        1 MOL      0.065700
     23 H5          2.3900   -1.7800   -1.6880 h1        1 MOL      0.065700
     24 H6         -0.5870   -3.1100   -4.8470 h1        1 MOL      0.065700
     25 H7         -0.2660   -1.5160   -5.5780 h1        1 MOL      0.065700
     26 H8          0.8990   -3.3340   -6.8560 hc        1 MOL      0.055800
     27 H9          2.0770   -2.2380   -6.0950 hc        1 MOL      0.055800
     28 H10         1.7600   -3.8110   -5.3730 hc        1 MOL      0.055800
     29 H11        -3.1140    3.9280   -3.9730 ha        1 MOL      0.178800
@<TRIPOS>BOND
     1    1    2 1   
     2    2    3 1   
     3    3    4 1   
     4    4    5 2   
     5    4    6 1   
     6    6    7 1   
     7    7    8 1   
     8    4    9 1   
     9    9   10 1   
    10   10   15 ar  
    11   10   11 ar  
    12   11   12 ar  
    13   12   13 ar  
    14   13   14 ar  
    15   14   15 ar  
    16   14   16 1   
    17   13   17 1   
    18   11   18 1   
    19    1   19 1   
    20    1   20 1   
    21    1   21 1   
    22    2   22 1   
    23    2   23 1   
    24    7   24 1   
    25    7   25 1   
    26    8   26 1   
    27    8   27 1   
    28    8   28 1   
    29   12   29 1   
@<TRIPOS>SUBSTRUCTURE
     1 MOL         1 TEMP              0 ****  ****    0 ROOT
