@<TRIPOS>MOLECULE
propyl
   17    16     1     0     0
SMALL
No Charge or Current Charge


@<TRIPOS>ATOM
      1 C1         -0.0020   -0.6660    0.8690 c3        1 MOL     -0.095400
      2 C2          1.2440   -0.4430    1.7060 c3        1 MOL     -0.103800
      3 C3          1.2750   -1.3490    2.9270 c3        1 MOL      0.135400
      4 O1          2.4630   -1.0900    3.6620 os        1 MOL     -0.443100
      5 C4          2.6360   -1.8330    4.7980 c         1 MOL      0.634800
      6 O2          1.8680   -2.6850    5.2240 o         1 MOL     -0.544700
      7 C5          3.9230   -1.4540    5.4650 c3        1 MOL     -0.151500
      8 H1         -0.0100   -0.0070   -0.0060 hc        1 MOL      0.039400
      9 H2         -0.0430   -1.7000    0.5150 hc        1 MOL      0.039400
     10 H3         -0.9070   -0.4710    1.4530 hc        1 MOL      0.039400
     11 H4          1.2970    0.6050    2.0240 hc        1 MOL      0.048500
     12 H5          2.1390   -0.6180    1.0960 hc        1 MOL      0.048500
     13 H6          0.4150   -1.1590    3.5770 h1        1 MOL      0.064000
     14 H7          1.2710   -2.4040    2.6320 h1        1 MOL      0.064000
     15 H8          3.7480   -0.6420    6.1750 hc        1 MOL      0.075000
     16 H9          4.6570   -1.1570    4.7120 hc        1 MOL      0.075000
     17 H10         4.3160   -2.3170    6.0110 hc        1 MOL      0.075000
@<TRIPOS>BOND
     1    1    2 1   
     2    2    3 1   
     3    3    4 1   
     4    4    5 1   
     5    5    6 2   
     6    5    7 1   
     7    1    8 1   
     8    1    9 1   
     9    1   10 1   
    10    2   11 1   
    11    2   12 1   
    12    3   13 1   
    13    3   14 1   
    14    7   15 1   
    15    7   16 1   
    16    7   17 1   
@<TRIPOS>SUBSTRUCTURE
     1 MOL         1 TEMP              0 ****  ****    0 ROOT
