@<TRIPOS>MOLECULE
2,6-dinitro-N,N-dipropyl-4-(trifluoromethyl)aniline
   39    39     1     0     0
SMALL
No Charge or Current Charge


@<TRIPOS>ATOM
      1 C1          3.4480    3.6060   -0.0290 c3        1 MOL     -0.090700
      2 C2          3.6340    2.8450   -1.3340 c3        1 MOL     -0.109000
      3 C3          2.6190    1.7220   -1.5110 c3        1 MOL      0.238600
      4 N1          2.8010    1.0090   -2.7450 nh        1 MOL     -0.788100
      5 C4          2.7100    1.7480   -4.0090 c3        1 MOL      0.238600
      6 C5          1.3460    2.3800   -4.1790 c3        1 MOL     -0.109000
      7 C6          1.2060    3.1580   -5.4800 c3        1 MOL     -0.090700
      8 C7          3.0770   -0.3690   -2.7670 ca        1 MOL      0.300600
      9 C8          2.0290   -1.2890   -2.8160 ca        1 MOL     -0.175000
     10 C9          2.3030   -2.6570   -2.8370 ca        1 MOL     -0.016100
     11 C10         3.6230   -3.1050   -2.8090 ca        1 MOL     -0.173700
     12 C11         4.6710   -2.1850   -2.7600 ca        1 MOL     -0.016100
     13 C12         4.3970   -0.8170   -2.7390 ca        1 MOL     -0.175000
     14 N2          5.4870    0.0980   -2.6880 no        1 MOL      0.318600
     15 O1          5.9180    0.4630   -1.5700 o         1 MOL     -0.178700
     16 O2          5.9810    0.5100   -3.7640 o         1 MOL     -0.178700
     17 C13         3.9150   -4.5670   -2.8330 c3        1 MOL      0.695300
     18 F1          2.7960   -5.3480   -2.8820 f         1 MOL     -0.224500
     19 F2          4.6690   -4.9570   -3.9040 f         1 MOL     -0.224500
     20 F3          4.6040   -4.9830   -1.7300 f         1 MOL     -0.224500
     21 N3          0.6720   -0.8620   -2.8460 no        1 MOL      0.318600
     22 O3          0.1270   -0.6580   -3.9560 o         1 MOL     -0.178700
     23 O4          0.0640   -0.7040   -1.7620 o         1 MOL     -0.178700
     24 H1          4.1910    4.4040    0.0690 hc        1 MOL      0.038000
     25 H2          2.4540    4.0630    0.0020 hc        1 MOL      0.038000
     26 H3          3.5380    2.9420    0.8370 hc        1 MOL      0.038000
     27 H4          4.6430    2.4150   -1.3480 hc        1 MOL      0.053400
     28 H5          3.5690    3.5470   -2.1730 hc        1 MOL      0.053400
     29 H6          2.7220    0.9930   -0.7020 h1        1 MOL      0.053200
     30 H7          1.5940    2.1070   -1.4950 h1        1 MOL      0.053200
     31 H8          2.9060    1.0160   -4.7870 h1        1 MOL      0.053200
     32 H9          3.5110    2.4800   -3.9930 h1        1 MOL      0.053200
     33 H10         0.6010    1.5760   -4.1700 hc        1 MOL      0.053400
     34 H11         1.1190    3.0430   -3.3360 hc        1 MOL      0.053400
     35 H12         0.2080    3.6000   -5.5660 hc        1 MOL      0.038000
     36 H13         1.9390    3.9700   -5.5130 hc        1 MOL      0.038000
     37 H14         1.3760    2.5160   -6.3490 hc        1 MOL      0.038000
     38 H15         1.4900   -3.3790   -2.8770 ha        1 MOL      0.183600
     39 H16         5.6990   -2.5400   -2.7370 ha        1 MOL      0.183600
@<TRIPOS>BOND
     1    1    2 1   
     2    2    3 1   
     3    3    4 1   
     4    4    5 1   
     5    5    6 1   
     6    6    7 1   
     7    4    8 1   
     8    8   13 ar  
     9    8    9 ar  
    10    9   10 ar  
    11   10   11 ar  
    12   11   12 ar  
    13   12   13 ar  
    14   13   14 1   
    15   14   15 1   
    16   14   16 1   
    17   11   17 1   
    18   17   18 1   
    19   17   19 1   
    20   17   20 1   
    21    9   21 1   
    22   21   22 1   
    23   21   23 1   
    24    1   24 1   
    25    1   25 1   
    26    1   26 1   
    27    2   27 1   
    28    2   28 1   
    29    3   29 1   
    30    3   30 1   
    31    5   31 1   
    32    5   32 1   
    33    6   33 1   
    34    6   34 1   
    35    7   35 1   
    36    7   36 1   
    37    7   37 1   
    38   10   38 1   
    39   12   39 1   
@<TRIPOS>SUBSTRUCTURE
     1 MOL         1 TEMP              0 ****  ****    0 ROOT
