@<TRIPOS>MOLECULE
4-methoxy-N,N-dimethyl-benzamide
   26    26     1     0     0
SMALL
No Charge or Current Charge


@<TRIPOS>ATOM
      1 C1          1.0790   -0.1520   -0.2190 c3        1 MOL      0.082800
      2 N1          1.5170    0.5280   -1.4290 n         1 MOL     -0.481800
      3 C2          1.0590   -0.0590   -2.6860 c3        1 MOL      0.082800
      4 C3          2.3230    1.6660   -1.3230 c         1 MOL      0.675300
      5 O1          2.7130    2.1680   -0.2700 o         1 MOL     -0.594100
      6 C4          2.7670    2.3260   -2.5620 ca        1 MOL     -0.164500
      7 C5          3.9630    1.9420   -3.1670 ca        1 MOL     -0.066600
      8 C6          4.3830    2.5670   -4.3410 ca        1 MOL     -0.184200
      9 C7          3.6070    3.5760   -4.9100 ca        1 MOL      0.136400
     10 C8          2.4100    3.9610   -4.3040 ca        1 MOL     -0.184200
     11 C9          1.9900    3.3350   -3.1300 ca        1 MOL     -0.066600
     12 O2          4.0160    4.1870   -6.0550 os        1 MOL     -0.324500
     13 C10         5.2490    3.7460   -6.6220 c3        1 MOL      0.111500
     14 H1          1.8050   -0.9190    0.0640 h1        1 MOL      0.042300
     15 H2          0.1090   -0.6280   -0.3830 h1        1 MOL      0.042300
     16 H3          0.9850    0.5630    0.6030 h1        1 MOL      0.042300
     17 H4          0.1100    0.3920   -2.9590 h1        1 MOL      0.042300
     18 H5          0.9360   -1.1290   -2.5530 h1        1 MOL      0.042300
     19 H6          1.7970    0.1350   -3.4580 h1        1 MOL      0.042300
     20 H7          4.5770    1.1570   -2.7320 ha        1 MOL      0.144100
     21 H8          5.3160    2.2630   -4.8080 ha        1 MOL      0.147500
     22 H9          1.8020    4.7470   -4.7430 ha        1 MOL      0.147500
     23 H10         1.0560    3.6420   -2.6670 ha        1 MOL      0.144100
     24 H11         5.4480    4.3180   -7.5270 h1        1 MOL      0.046800
     25 H12         5.1750    2.6830   -6.8480 h1        1 MOL      0.046800
     26 H13         6.0420    3.9150   -5.8950 h1        1 MOL      0.046800
@<TRIPOS>BOND
     1    1    2 1   
     2    2    3 1   
     3    2    4 1   
     4    4    5 2   
     5    4    6 1   
     6    6   11 ar  
     7    6    7 ar  
     8    7    8 ar  
     9    8    9 ar  
    10    9   10 ar  
    11   10   11 ar  
    12    9   12 1   
    13   12   13 1   
    14    1   14 1   
    15    1   15 1   
    16    1   16 1   
    17    3   17 1   
    18    3   18 1   
    19    3   19 1   
    20    7   20 1   
    21    8   21 1   
    22   10   22 1   
    23   11   23 1   
    24   13   24 1   
    25   13   25 1   
    26   13   26 1   
@<TRIPOS>SUBSTRUCTURE
     1 MOL         1 TEMP              0 ****  ****    0 ROOT
