@<TRIPOS>MOLECULE
N,N-dimethylmethanamine
   13    12     1     0     0
SMALL
No Charge or Current Charge


@<TRIPOS>ATOM
      1 C1         -0.2720   -0.2550    1.0310 c3        1 MOL      0.149500
      2 N1          0.9010   -0.5170    1.8640 n3        1 MOL     -0.726200
      3 C2          1.7510    0.6710    1.9380 c3        1 MOL      0.149500
      4 C3          1.6570   -1.6540    1.3400 c3        1 MOL      0.149500
      5 H1         -0.9030   -1.1460    0.9800 h1        1 MOL      0.030900
      6 H2          0.0370    0.0160    0.0180 h1        1 MOL      0.030900
      7 H3         -0.8570    0.5670    1.4510 h1        1 MOL      0.030900
      8 H4          2.6110    0.4480    2.5610 h1        1 MOL      0.030900
      9 H5          1.1810    1.4860    2.3700 h1        1 MOL      0.030900
     10 H6          2.0760    0.9350    0.9370 h1        1 MOL      0.030900
     11 H7          2.5190   -1.8250    1.9760 h1        1 MOL      0.030900
     12 H8          1.9800   -1.4280    0.3290 h1        1 MOL      0.030900
     13 H9          1.0180   -2.5310    1.3370 h1        1 MOL      0.030900
@<TRIPOS>BOND
     1    1    2 1   
     2    2    3 1   
     3    2    4 1   
     4    1    5 1   
     5    1    6 1   
     6    1    7 1   
     7    3    8 1   
     8    3    9 1   
     9    3   10 1   
    10    4   11 1   
    11    4   12 1   
    12    4   13 1   
@<TRIPOS>SUBSTRUCTURE
     1 MOL         1 TEMP              0 ****  ****    0 ROOT
