@<TRIPOS>MOLECULE
methoxyethane
   12    11     1     0     0
SMALL
No Charge or Current Charge


@<TRIPOS>ATOM
      1 C1          1.0620   -0.2680   -0.0010 c3        1 MOL     -0.097100
      2 C2          1.9100    0.9130   -0.4220 c3        1 MOL      0.125600
      3 O1          1.5170    1.3240   -1.7230 os        1 MOL     -0.418700
      4 C3          2.2820    2.4340   -2.1740 c3        1 MOL      0.115100
      5 H1          1.3390   -0.6110    1.0000 hc        1 MOL      0.044800
      6 H2         -0.0000   -0.0000   -0.0010 hc        1 MOL      0.044800
      7 H3          1.1800   -1.0990   -0.7040 hc        1 MOL      0.044800
      8 H4          2.9680    0.6360   -0.4450 h1        1 MOL      0.022000
      9 H5          1.7730    1.7500    0.2690 h1        1 MOL      0.022000
     10 H6          1.9490    2.7170   -3.1740 h1        1 MOL      0.032300
     11 H7          3.3380    2.1600   -2.1890 h1        1 MOL      0.032300
     12 H8          2.1280    3.2670   -1.4870 h1        1 MOL      0.032300
@<TRIPOS>BOND
     1    1    2 1   
     2    2    3 1   
     3    3    4 1   
     4    1    5 1   
     5    1    6 1   
     6    1    7 1   
     7    2    8 1   
     8    2    9 1   
     9    4   10 1   
    10    4   11 1   
    11    4   12 1   
@<TRIPOS>SUBSTRUCTURE
     1 MOL         1 TEMP              0 ****  ****    0 ROOT
