@<TRIPOS>MOLECULE
nitrobenzene
   14    14     1     0     0
SMALL
No Charge or Current Charge


@<TRIPOS>ATOM
      1 C1          1.8850   -1.0360   -0.1120 ca        1 MOL     -0.088200
      2 C2          2.9210   -1.6310    0.6080 ca        1 MOL     -0.139700
      3 C3          2.8780   -1.6520    2.0020 ca        1 MOL     -0.067400
      4 C4          1.8000   -1.0790    2.6760 ca        1 MOL     -0.176000
      5 C5          0.7640   -0.4840    1.9550 ca        1 MOL     -0.067400
      6 C6          0.8070   -0.4630    0.5610 ca        1 MOL     -0.139700
      7 N1          1.7560   -1.1000    4.0950 no        1 MOL      0.312500
      8 O1          0.7770   -0.5790    4.6810 o         1 MOL     -0.208500
      9 O2          2.6980   -1.6400    4.7240 o         1 MOL     -0.208500
     10 H1          1.9180   -1.0210   -1.1980 ha        1 MOL      0.144300
     11 H2          3.7600   -2.0780    0.0840 ha        1 MOL      0.148300
     12 H3          3.6920   -2.1190    2.5520 ha        1 MOL      0.171000
     13 H4         -0.0830   -0.0340    2.4680 ha        1 MOL      0.171000
     14 H5         -0.0010   -0.0010    0.0010 ha        1 MOL      0.148300
@<TRIPOS>BOND
     1    1    6 ar  
     2    1    2 ar  
     3    2    3 ar  
     4    3    4 ar  
     5    4    5 ar  
     6    5    6 ar  
     7    4    7 1   
     8    7    8 1   
     9    7    9 1   
    10    1   10 1   
    11    2   11 1   
    12    3   12 1   
    13    5   13 1   
    14    6   14 1   
@<TRIPOS>SUBSTRUCTURE
     1 MOL         1 TEMP              0 ****  ****    0 ROOT
