@<TRIPOS>MOLECULE
methyl
   12    11     1     0     0
SMALL
No Charge or Current Charge


@<TRIPOS>ATOM
      1 C1         -0.9280    0.5690    0.0840 c3        1 MOL      0.128200
      2 O1         -1.2500    0.7970    1.4600 os        1 MOL     -0.445400
      3 C2         -1.4580   -0.3260    2.2100 c         1 MOL      0.631200
      4 O2         -1.3920   -1.4790    1.8050 o         1 MOL     -0.511200
      5 C3         -1.7830    0.0870    3.6250 c3        1 MOL     -0.065800
      6 C4         -2.0210   -1.0690    4.4960 c1        1 MOL      0.208100
      7 N1         -2.2110   -1.9810    5.1890 n1        1 MOL     -0.333300
      8 H1         -0.7830    1.5280   -0.4210 h1        1 MOL      0.055200
      9 H2         -1.7390    0.0130   -0.3930 h1        1 MOL      0.055200
     10 H3         -0.0060   -0.0140    0.0260 h1        1 MOL      0.055200
     11 H4         -2.6780    0.7190    3.6030 hc        1 MOL      0.111200
     12 H5         -0.9440    0.6730    4.0140 hc        1 MOL      0.111200
@<TRIPOS>BOND
     1    1    2 1   
     2    2    3 1   
     3    3    4 2   
     4    3    5 1   
     5    5    6 1   
     6    6    7 3   
     7    1    8 1   
     8    1    9 1   
     9    1   10 1   
    10    5   11 1   
    11    5   12 1   
@<TRIPOS>SUBSTRUCTURE
     1 MOL         1 TEMP              0 ****  ****    0 ROOT
