@<TRIPOS>MOLECULE
(3S)-hexan-3-ol
   21    20     1     0     0
SMALL
No Charge or Current Charge


@<TRIPOS>ATOM
      1 C1          0.8930   -0.3160    0.3470 c3        1 MOL     -0.092100
      2 C2          1.2140    0.1400    1.7620 c3        1 MOL     -0.079400
      3 C3          0.1530   -0.3410    2.7580 c3        1 MOL     -0.111300
      4 C4          0.4590    0.1090    4.1930 c3        1 MOL      0.135000
      5 H1          1.4270   -0.2960    4.5080 h1        1 MOL      0.075200
      6 C5         -0.6280   -0.2990    5.1950 c3        1 MOL     -0.111200
      7 C6         -0.3440    0.1380    6.6220 c3        1 MOL     -0.090800
      8 O1          0.5620    1.5340    4.2070 oh        1 MOL     -0.594800
      9 H2          1.6540    0.0310   -0.3590 hc        1 MOL      0.032800
     10 H3          0.8420   -1.4070    0.2890 hc        1 MOL      0.032800
     11 H4         -0.0740    0.0870    0.0290 hc        1 MOL      0.032800
     12 H5          2.1970   -0.2490    2.0500 hc        1 MOL      0.046800
     13 H6          1.2800    1.2340    1.7750 hc        1 MOL      0.046800
     14 H7         -0.8220    0.0580    2.4500 hc        1 MOL      0.042300
     15 H8          0.0930   -1.4330    2.7110 hc        1 MOL      0.042300
     16 H9         -1.5850    0.1350    4.8780 hc        1 MOL      0.042100
     17 H10        -0.7760   -1.3860    5.1620 hc        1 MOL      0.042100
     18 H11        -1.1470   -0.1760    7.2970 hc        1 MOL      0.038000
     19 H12         0.5890   -0.3140    6.9740 hc        1 MOL      0.038000
     20 H13        -0.2320    1.2230    6.6970 hc        1 MOL      0.038000
     21 H14        -0.2930    1.8730    3.9040 ho        1 MOL      0.394800
@<TRIPOS>BOND
     1    1    2 1   
     2    2    3 1   
     3    3    4 1   
     4    4    5 1   
     5    4    6 1   
     6    6    7 1   
     7    4    8 1   
     8    1    9 1   
     9    1   10 1   
    10    1   11 1   
    11    2   12 1   
    12    2   13 1   
    13    3   14 1   
    14    3   15 1   
    15    6   16 1   
    16    6   17 1   
    17    7   18 1   
    18    7   19 1   
    19    7   20 1   
    20    8   21 1   
@<TRIPOS>SUBSTRUCTURE
     1 MOL         1 TEMP              0 ****  ****    0 ROOT
