@<TRIPOS>MOLECULE
pentylcyclopentane
   30    30     1     0     0
SMALL
No Charge or Current Charge


@<TRIPOS>ATOM
      1 C1          1.6440    1.0190   -8.5870 c3        1 MOL     -0.092600
      2 C2          1.0970    1.2150   -7.1820 c3        1 MOL     -0.080100
      3 C3          1.1190   -0.0900   -6.3860 c3        1 MOL     -0.079200
      4 C4          0.5690    0.1110   -4.9730 c3        1 MOL     -0.080000
      5 C5          0.5910   -1.1930   -4.1770 c3        1 MOL     -0.070300
      6 C6          0.0450   -0.9980   -2.7730 c3        1 MOL     -0.068500
      7 C7         -1.4280   -0.6010   -2.7510 c3        1 MOL     -0.077100
      8 C8         -1.8730   -0.9060   -1.3240 c3        1 MOL     -0.079800
      9 C9         -0.9150   -1.9770   -0.8000 c3        1 MOL     -0.079800
     10 C10         0.0490   -2.2780   -1.9430 c3        1 MOL     -0.077100
     11 H1          1.6240    1.9580   -9.1500 hc        1 MOL      0.032300
     12 H2          1.0400    0.2850   -9.1300 hc        1 MOL      0.032300
     13 H3          2.6760    0.6560   -8.5590 hc        1 MOL      0.032300
     14 H4          0.0710    1.5950   -7.2450 hc        1 MOL      0.038500
     15 H5          1.6940    1.9760   -6.6670 hc        1 MOL      0.038500
     16 H6          2.1470   -0.4680   -6.3290 hc        1 MOL      0.039300
     17 H7          0.5240   -0.8490   -6.9070 hc        1 MOL      0.039300
     18 H8         -0.4590    0.4900   -5.0290 hc        1 MOL      0.039700
     19 H9          1.1640    0.8700   -4.4510 hc        1 MOL      0.039700
     20 H10        -0.0060   -1.9540   -4.6920 hc        1 MOL      0.040800
     21 H11         1.6170   -1.5740   -4.1140 hc        1 MOL      0.040800
     22 H12         0.6370   -0.2290   -2.2600 hc        1 MOL      0.047300
     23 H13        -1.5800    0.4520   -3.0110 hc        1 MOL      0.041500
     24 H14        -2.0080   -1.2080   -3.4560 hc        1 MOL      0.041500
     25 H15        -1.8030   -0.0070   -0.7010 hc        1 MOL      0.039400
     26 H16        -2.9140   -1.2430   -1.2960 hc        1 MOL      0.039400
     27 H17        -0.3680   -1.5910    0.0680 hc        1 MOL      0.039400
     28 H18        -1.4470   -2.8790   -0.4780 hc        1 MOL      0.039400
     29 H19         1.0480   -2.5360   -1.5790 hc        1 MOL      0.041500
     30 H20        -0.3250   -3.1270   -2.5290 hc        1 MOL      0.041500
@<TRIPOS>BOND
     1    1    2 1   
     2    2    3 1   
     3    3    4 1   
     4    4    5 1   
     5    5    6 1   
     6    6   10 1   
     7    6    7 1   
     8    7    8 1   
     9    8    9 1   
    10    9   10 1   
    11    1   11 1   
    12    1   12 1   
    13    1   13 1   
    14    2   14 1   
    15    2   15 1   
    16    3   16 1   
    17    3   17 1   
    18    4   18 1   
    19    4   19 1   
    20    5   20 1   
    21    5   21 1   
    22    6   22 1   
    23    7   23 1   
    24    7   24 1   
    25    8   25 1   
    26    8   26 1   
    27    9   27 1   
    28    9   28 1   
    29   10   29 1   
    30   10   30 1   
@<TRIPOS>SUBSTRUCTURE
     1 MOL         1 TEMP              0 ****  ****    0 ROOT
