@<TRIPOS>MOLECULE
pentanal
   16    15     1     0     0
SMALL
No Charge or Current Charge


@<TRIPOS>ATOM
      1 C1         -1.1150    1.9920   -0.6990 c3        1 MOL     -0.092100
      2 C2         -1.0620    0.5170   -0.3340 c3        1 MOL     -0.078800
      3 C3          0.3520    0.0850    0.0500 c3        1 MOL     -0.075200
      4 C4          0.4000   -1.3950    0.4150 c3        1 MOL     -0.198700
      5 C5          1.7860   -1.8540    0.8000 c         1 MOL      0.563100
      6 O1          2.7790   -1.1350    0.8230 o         1 MOL     -0.523900
      7 H1         -2.1350    2.2800   -0.9700 hc        1 MOL      0.035100
      8 H2         -0.4630    2.2090   -1.5510 hc        1 MOL      0.035100
      9 H3         -0.7980    2.6160    0.1440 hc        1 MOL      0.035100
     10 H4         -1.4150   -0.0760   -1.1850 hc        1 MOL      0.036400
     11 H5         -1.7480    0.3290    0.5000 hc        1 MOL      0.036400
     12 H6          0.7060    0.6860    0.8970 hc        1 MOL      0.053300
     13 H7          1.0380    0.2820   -0.7830 hc        1 MOL      0.053300
     14 H8          0.0730   -2.0090   -0.4310 hc        1 MOL      0.065400
     15 H9         -0.2620   -1.6020    1.2630 hc        1 MOL      0.065400
     16 H10         1.8630   -2.9210    1.0720 h4        1 MOL     -0.009800
@<TRIPOS>BOND
     1    1    2 1   
     2    2    3 1   
     3    3    4 1   
     4    4    5 1   
     5    5    6 2   
     6    1    7 1   
     7    1    8 1   
     8    1    9 1   
     9    2   10 1   
    10    2   11 1   
    11    3   12 1   
    12    3   13 1   
    13    4   14 1   
    14    4   15 1   
    15    5   16 1   
@<TRIPOS>SUBSTRUCTURE
     1 MOL         1 TEMP              0 ****  ****    0 ROOT
