@<TRIPOS>MOLECULE
2-methylpyridine
   14    14     1     0     0
SMALL
No Charge or Current Charge


@<TRIPOS>ATOM
      1 C1          0.9810   -2.1300    4.7570 c3        1 MOL     -0.150700
      2 C2          0.7300   -1.5160    3.4210 ca        1 MOL      0.411400
      3 C3          1.6520   -0.6230    2.9000 ca        1 MOL     -0.247900
      4 C4          1.3880   -0.0680    1.6520 ca        1 MOL     -0.089600
      5 C5          0.2270   -0.4200    0.9730 ca        1 MOL     -0.254000
      6 C6         -0.6320   -1.3220    1.5800 ca        1 MOL      0.399700
      7 N1         -0.4090   -1.8820    2.7910 nb        1 MOL     -0.670100
      8 H1          1.5430   -3.0620    4.6420 hc        1 MOL      0.053200
      9 H2          1.5510   -1.4500    5.3990 hc        1 MOL      0.053200
     10 H3          0.0380   -2.3460    5.2710 hc        1 MOL      0.053200
     11 H4          2.5540   -0.3570    3.4400 ha        1 MOL      0.142100
     12 H5          2.0860    0.6360    1.2100 ha        1 MOL      0.136400
     13 H6          0.0000   -0.0000   -0.0000 ha        1 MOL      0.142100
     14 H7         -1.5510   -1.6290    1.0920 h4        1 MOL      0.021100
@<TRIPOS>BOND
     1    1    2 1   
     2    2    7 ar  
     3    2    3 ar  
     4    3    4 ar  
     5    4    5 ar  
     6    5    6 ar  
     7    6    7 ar  
     8    1    8 1   
     9    1    9 1   
    10    1   10 1   
    11    3   11 1   
    12    4   12 1   
    13    5   13 1   
    14    6   14 1   
@<TRIPOS>SUBSTRUCTURE
     1 MOL         1 TEMP              0 ****  ****    0 ROOT
