@<TRIPOS>MOLECULE
non-1-ene
   27    26     1     0     0
SMALL
No Charge or Current Charge


@<TRIPOS>ATOM
      1 C1         -2.7080    2.7610   -1.3160 c3        1 MOL     -0.092400
      2 C2         -2.0240    1.4030   -1.3410 c3        1 MOL     -0.079900
      3 C3         -1.3390    1.0960   -0.0100 c3        1 MOL     -0.081100
      4 C4         -0.6530   -0.2710   -0.0390 c3        1 MOL     -0.076500
      5 C5          0.0320   -0.5750    1.2950 c3        1 MOL     -0.075900
      6 C6          0.7380   -1.9360    1.3220 c3        1 MOL     -0.074500
      7 C7          1.4390   -2.2880    2.6380 c3        1 MOL     -0.053900
      8 C8          0.5040   -2.3330    3.8100 c2        1 MOL     -0.161700
      9 C9          0.6220   -1.5540    4.8910 c2        1 MOL     -0.224200
     10 H1         -3.1950    2.9730   -2.2730 hc        1 MOL      0.032600
     11 H2         -1.9740    3.5510   -1.1260 hc        1 MOL      0.032600
     12 H3         -3.4650    2.8050   -0.5270 hc        1 MOL      0.032600
     13 H4         -2.7690    0.6300   -1.5640 hc        1 MOL      0.037600
     14 H5         -1.2870    1.3870   -2.1520 hc        1 MOL      0.037600
     15 H6         -0.5980    1.8750    0.2100 hc        1 MOL      0.040800
     16 H7         -2.0810    1.1180    0.7980 hc        1 MOL      0.040800
     17 H8          0.0820   -0.2840   -0.8510 hc        1 MOL      0.038600
     18 H9         -1.3940   -1.0490   -0.2580 hc        1 MOL      0.038600
     19 H10         0.7430    0.2230    1.5380 hc        1 MOL      0.037700
     20 H11        -0.7220   -0.5700    2.0920 hc        1 MOL      0.037700
     21 H12         1.4780   -1.9690    0.5130 hc        1 MOL      0.041000
     22 H13        -0.0030   -2.7130    1.0910 hc        1 MOL      0.041000
     23 H14         2.2690   -1.5950    2.8200 hc        1 MOL      0.046700
     24 H15         1.8930   -3.2820    2.5330 hc        1 MOL      0.046700
     25 H16        -0.3090   -3.0540    3.7720 ha        1 MOL      0.116800
     26 H17        -0.0850   -1.6390    5.7090 ha        1 MOL      0.110300
     27 H18         1.4170   -0.8230    4.9790 ha        1 MOL      0.110300
@<TRIPOS>BOND
     1    1    2 1   
     2    2    3 1   
     3    3    4 1   
     4    4    5 1   
     5    5    6 1   
     6    6    7 1   
     7    7    8 1   
     8    8    9 2   
     9    1   10 1   
    10    1   11 1   
    11    1   12 1   
    12    2   13 1   
    13    2   14 1   
    14    3   15 1   
    15    3   16 1   
    16    4   17 1   
    17    4   18 1   
    18    5   19 1   
    19    5   20 1   
    20    6   21 1   
    21    6   22 1   
    22    7   23 1   
    23    7   24 1   
    24    8   25 1   
    25    9   26 1   
    26    9   27 1   
@<TRIPOS>SUBSTRUCTURE
     1 MOL         1 TEMP              0 ****  ****    0 ROOT
