@<TRIPOS>MOLECULE
fluorobenzene
   12    12     1     0     0
SMALL
No Charge or Current Charge


@<TRIPOS>ATOM
      1 C1          1.8850   -1.0360   -0.1120 ca        1 MOL     -0.145000
      2 C2          2.9210   -1.6310    0.6080 ca        1 MOL     -0.105300
      3 C3          2.8780   -1.6520    2.0020 ca        1 MOL     -0.165500
      4 C4          1.8000   -1.0790    2.6760 ca        1 MOL      0.123700
      5 C5          0.7640   -0.4840    1.9550 ca        1 MOL     -0.165500
      6 C6          0.8070   -0.4630    0.5610 ca        1 MOL     -0.105300
      7 F1          1.7580   -1.0990    4.0140 f         1 MOL     -0.142400
      8 H1          1.9190   -1.0200   -1.1980 ha        1 MOL      0.135900
      9 H2          3.7610   -2.0770    0.0840 ha        1 MOL      0.136800
     10 H3          3.6850   -2.1150    2.5630 ha        1 MOL      0.147900
     11 H4         -0.0760   -0.0380    2.4800 ha        1 MOL      0.147900
     12 H5         -0.0000   -0.0000    0.0000 ha        1 MOL      0.136800
@<TRIPOS>BOND
     1    1    6 ar  
     2    1    2 ar  
     3    2    3 ar  
     4    3    4 ar  
     5    4    5 ar  
     6    5    6 ar  
     7    4    7 1   
     8    1    8 1   
     9    2    9 1   
    10    3   10 1   
    11    5   11 1   
    12    6   12 1   
@<TRIPOS>SUBSTRUCTURE
     1 MOL         1 TEMP              0 ****  ****    0 ROOT
