@<TRIPOS>MOLECULE
hexan-1-amine
   22    21     1     0     0
SMALL
No Charge or Current Charge


@<TRIPOS>ATOM
      1 C1         -2.3100   -1.4080    1.8830 c3        1 MOL     -0.091300
      2 C2         -1.1040   -0.4940    1.7310 c3        1 MOL     -0.080000
      3 C3         -1.2660    0.8540    2.4370 c3        1 MOL     -0.077800
      4 C4         -0.0500    1.7700    2.2800 c3        1 MOL     -0.072600
      5 C5         -0.2650    3.1030    3.0050 c3        1 MOL     -0.120000
      6 C6          0.9300    4.0420    2.8690 c3        1 MOL      0.153400
      7 N1          0.7290    5.2930    3.5480 n3        1 MOL     -0.909500
      8 H1         -2.1510   -2.3590    1.3640 hc        1 MOL      0.033500
      9 H2         -2.5240   -1.6190    2.9350 hc        1 MOL      0.033500
     10 H3         -3.1980   -0.9330    1.4540 hc        1 MOL      0.033500
     11 H4         -0.8980   -0.3360    0.6660 hc        1 MOL      0.037600
     12 H5         -0.2280   -1.0020    2.1510 hc        1 MOL      0.037600
     13 H6         -2.1620    1.3610    2.0600 hc        1 MOL      0.038000
     14 H7         -1.4360    0.6630    3.5040 hc        1 MOL      0.038000
     15 H8          0.1390    1.9590    1.2180 hc        1 MOL      0.040700
     16 H9          0.8390    1.2730    2.6860 hc        1 MOL      0.040700
     17 H10        -1.1670    3.5910    2.6150 hc        1 MOL      0.036700
     18 H11        -0.4370    2.9100    4.0710 hc        1 MOL      0.036700
     19 H12         1.1400    4.2620    1.8180 h1        1 MOL      0.050600
     20 H13         1.8200    3.5810    3.3080 h1        1 MOL      0.050600
     21 H14         0.9150    5.3510    4.5370 hn        1 MOL      0.345000
     22 H15         0.2190    6.0280    3.0840 hn        1 MOL      0.345000
@<TRIPOS>BOND
     1    1    2 1   
     2    2    3 1   
     3    3    4 1   
     4    4    5 1   
     5    5    6 1   
     6    6    7 1   
     7    1    8 1   
     8    1    9 1   
     9    1   10 1   
    10    2   11 1   
    11    2   12 1   
    12    3   13 1   
    13    3   14 1   
    14    4   15 1   
    15    4   16 1   
    16    5   17 1   
    17    5   18 1   
    18    6   19 1   
    19    6   20 1   
    20    7   21 1   
    21    7   22 1   
@<TRIPOS>SUBSTRUCTURE
     1 MOL         1 TEMP              0 ****  ****    0 ROOT
