@<TRIPOS>MOLECULE
N-ethylethanamine
   16    15     1     0     0
SMALL
No Charge or Current Charge


@<TRIPOS>ATOM
      1 C1          1.5860   -1.2300    2.8930 c3        1 MOL     -0.096000
      2 C2          1.2110   -0.9760    1.4720 c3        1 MOL      0.169200
      3 N1          2.3150   -1.2360    0.5900 n3        1 MOL     -0.835400
      4 C3          1.9590   -0.9910   -0.8080 c3        1 MOL      0.169200
      5 C4          3.1190   -1.2690   -1.6870 c3        1 MOL     -0.096000
      6 H1          0.7410   -1.0300    3.5610 hc        1 MOL      0.038500
      7 H2          1.9190   -2.2640    3.0300 hc        1 MOL      0.038500
      8 H3          2.4100   -0.5670    3.1830 hc        1 MOL      0.038500
      9 H4          0.9120    0.0670    1.3340 h1        1 MOL      0.025000
     10 H5          0.3830   -1.6230    1.1680 h1        1 MOL      0.025000
     11 H6          3.1110   -0.6340    0.8300 hn        1 MOL      0.358100
     12 H7          1.1220   -1.6460   -1.0310 h1        1 MOL      0.025000
     13 H8          1.6450    0.0470   -0.8670 h1        1 MOL      0.025000
     14 H9          2.8740   -1.0910   -2.7400 hc        1 MOL      0.038500
     15 H10         3.9850   -0.6570   -1.4100 hc        1 MOL      0.038500
     16 H11         3.4010   -2.3230   -1.5790 hc        1 MOL      0.038500
@<TRIPOS>BOND
     1    1    2 1   
     2    2    3 1   
     3    3    4 1   
     4    4    5 1   
     5    1    6 1   
     6    1    7 1   
     7    1    8 1   
     8    2    9 1   
     9    2   10 1   
    10    3   11 1   
    11    4   12 1   
    12    4   13 1   
    13    5   14 1   
    14    5   15 1   
    15    5   16 1   
@<TRIPOS>SUBSTRUCTURE
     1 MOL         1 TEMP              0 ****  ****    0 ROOT
