@<TRIPOS>MOLECULE
diethoxy-(2-isopropyl-6-methyl-pyrimidin-4-yl)oxy-thioxo-$l^{5}-phosphane
   40    40     1     0     0
SMALL
No Charge or Current Charge


@<TRIPOS>ATOM
      1 C1         -4.1330    1.7910   -0.4520 c3        1 MOL     -0.096300
      2 C2         -2.9950    0.7930   -0.4330 c3        1 MOL      0.156400
      3 O1         -2.4740    0.6620   -1.7460 os        1 MOL     -0.542500
      4 P1         -1.2320   -0.3520   -2.0280 p5        1 MOL      1.264500
      5 S1         -1.5520   -2.2290   -1.6030 s         1 MOL     -0.601500
      6 O2         -0.0320    0.4000   -1.2270 os        1 MOL     -0.542500
      7 C3          1.3180    0.1050   -1.5420 c3        1 MOL      0.156400
      8 C4          2.2260    0.9350   -0.6590 c3        1 MOL     -0.096300
      9 O3         -0.8840    0.0040   -3.5710 os        1 MOL     -0.582000
     10 C5         -1.7270   -0.1140   -4.6430 ca        1 MOL      0.706800
     11 C6         -1.2720    0.2330   -5.8980 ca        1 MOL     -0.419500
     12 C7         -2.1820    0.0860   -6.9250 ca        1 MOL      0.488000
     13 N1         -3.4420   -0.3650   -6.7520 nb        1 MOL     -0.711000
     14 C8         -3.7660   -0.6700   -5.4810 ca        1 MOL      0.684500
     15 N2         -2.9730   -0.5710   -4.3970 nb        1 MOL     -0.696600
     16 C9         -5.1500   -1.1730   -5.2490 c3        1 MOL     -0.098200
     17 C10        -5.9480   -0.2760   -4.2830 c3        1 MOL     -0.092600
     18 C11        -5.1730   -2.6290   -4.7480 c3        1 MOL     -0.092600
     19 C12        -1.7810    0.4360   -8.3190 c3        1 MOL     -0.158100
     20 H1         -4.5590    1.9160    0.5480 hc        1 MOL      0.054700
     21 H2         -3.7870    2.7650   -0.8130 hc        1 MOL      0.054700
     22 H3         -4.9240    1.4610   -1.1340 hc        1 MOL      0.054700
     23 H4         -3.3480   -0.1860   -0.0950 h1        1 MOL      0.060600
     24 H5         -2.1950    1.1350    0.2310 h1        1 MOL      0.060600
     25 H6          1.4960   -0.9630   -1.3770 h1        1 MOL      0.060600
     26 H7          1.4950    0.3360   -2.5980 h1        1 MOL      0.060600
     27 H8          3.2780    0.7310   -0.8770 hc        1 MOL      0.054700
     28 H9          2.0360    2.0030   -0.8060 hc        1 MOL      0.054700
     29 H10         2.0370    0.7200    0.3980 hc        1 MOL      0.054700
     30 H11        -0.2660    0.5980   -6.0640 ha        1 MOL      0.167300
     31 H12        -5.7150   -1.1710   -6.2010 hc        1 MOL      0.076100
     32 H13        -6.9620   -0.6580   -4.1230 hc        1 MOL      0.044600
     33 H14        -6.0350    0.7470   -4.6650 hc        1 MOL      0.044600
     34 H15        -5.4520   -0.2290   -3.3070 hc        1 MOL      0.044600
     35 H16        -6.2040   -2.9630   -4.5890 hc        1 MOL      0.044600
     36 H17        -4.6360   -2.7350   -3.7990 hc        1 MOL      0.044600
     37 H18        -4.7090   -3.3110   -5.4690 hc        1 MOL      0.044600
     38 H19        -1.3540   -0.4380   -8.8240 hc        1 MOL      0.063900
     39 H20        -2.6400    0.7920   -8.9030 hc        1 MOL      0.063900
     40 H21        -1.0360    1.2420   -8.3280 hc        1 MOL      0.063900
@<TRIPOS>BOND
     1    1    2 1   
     2    2    3 1   
     3    3    4 1   
     4    4    5 2   
     5    4    6 1   
     6    6    7 1   
     7    7    8 1   
     8    4    9 1   
     9    9   10 1   
    10   10   15 ar  
    11   10   11 ar  
    12   11   12 ar  
    13   12   13 ar  
    14   13   14 ar  
    15   14   15 ar  
    16   14   16 1   
    17   16   17 1   
    18   16   18 1   
    19   12   19 1   
    20    1   20 1   
    21    1   21 1   
    22    1   22 1   
    23    2   23 1   
    24    2   24 1   
    25    7   25 1   
    26    7   26 1   
    27    8   27 1   
    28    8   28 1   
    29    8   29 1   
    30   11   30 1   
    31   16   31 1   
    32   17   32 1   
    33   17   33 1   
    34   17   34 1   
    35   18   35 1   
    36   18   36 1   
    37   18   37 1   
    38   19   38 1   
    39   19   39 1   
    40   19   40 1   
@<TRIPOS>SUBSTRUCTURE
     1 MOL         1 TEMP              0 ****  ****    0 ROOT
