@<TRIPOS>MOLECULE
1-methylimidazole
   12    12     1     0     0
SMALL
No Charge or Current Charge


@<TRIPOS>ATOM
      1 C1          3.6420   -2.4130   -1.7030 c3        1 MOL      0.026000
      2 N1          2.3540   -2.0370   -1.1810 na        1 MOL     -0.210900
      3 C2          1.9500   -0.7740   -0.8260 cc        1 MOL     -0.263100
      4 C3          0.6550   -0.7780   -0.3640 cd        1 MOL      0.293100
      5 N2          0.2600   -2.0840   -0.4420 nd        1 MOL     -0.668800
      6 C4          1.3130   -2.8020   -0.9370 cc        1 MOL      0.389800
      7 H1          3.5990   -2.3410   -2.7930 h1        1 MOL      0.052700
      8 H2          4.4070   -1.7400   -1.3060 h1        1 MOL      0.052700
      9 H3          3.8710   -3.4370   -1.3950 h1        1 MOL      0.052700
     10 H4          2.6380    0.0540   -0.9340 h4        1 MOL      0.174600
     11 H5          0.0270    0.0210   -0.0060 h4        1 MOL      0.042200
     12 H6          1.2740   -3.8710   -1.1010 h5        1 MOL      0.059100
@<TRIPOS>BOND
     1    1    2 1   
     2    2    6 1   
     3    2    3 1   
     4    3    4 2   
     5    4    5 1   
     6    5    6 2   
     7    1    7 1   
     8    1    8 1   
     9    1    9 1   
    10    3   10 1   
    11    4   11 1   
    12    6   12 1   
@<TRIPOS>SUBSTRUCTURE
     1 MOL         1 TEMP              0 ****  ****    0 ROOT
