@<TRIPOS>MOLECULE
ethylbenzene
   18    18     1     0     0
SMALL
No Charge or Current Charge


@<TRIPOS>ATOM
      1 C1          2.6300    0.2300   -2.1290 c3        1 MOL     -0.088900
      2 C2          1.9310   -1.0140   -1.6030 c3        1 MOL     -0.039400
      3 C3          1.8850   -1.0360   -0.1120 ca        1 MOL     -0.076800
      4 C4          2.9210   -1.6310    0.6080 ca        1 MOL     -0.127600
      5 C5          2.8780   -1.6520    2.0020 ca        1 MOL     -0.128300
      6 C6          1.8000   -1.0790    2.6760 ca        1 MOL     -0.133900
      7 C7          0.7640   -0.4840    1.9550 ca        1 MOL     -0.128300
      8 C8          0.8070   -0.4630    0.5610 ca        1 MOL     -0.127600
      9 H1          2.6580    0.2370   -3.2240 hc        1 MOL      0.036200
     10 H2          3.6600    0.2690   -1.7630 hc        1 MOL      0.036200
     11 H3          2.1190    1.1420   -1.8000 hc        1 MOL      0.036200
     12 H4          2.4450   -1.9110   -1.9700 hc        1 MOL      0.045800
     13 H5          0.9110   -1.0640   -2.0040 hc        1 MOL      0.045800
     14 H6          3.7650   -2.0800    0.0910 ha        1 MOL      0.130700
     15 H7          3.6850   -2.1150    2.5630 ha        1 MOL      0.129600
     16 H8          1.7660   -1.0950    3.7610 ha        1 MOL      0.130000
     17 H9         -0.0760   -0.0380    2.4790 ha        1 MOL      0.129600
     18 H10        -0.0050    0.0030    0.0080 ha        1 MOL      0.130700
@<TRIPOS>BOND
     1    1    2 1   
     2    2    3 1   
     3    3    8 ar  
     4    3    4 ar  
     5    4    5 ar  
     6    5    6 ar  
     7    6    7 ar  
     8    7    8 ar  
     9    1    9 1   
    10    1   10 1   
    11    1   11 1   
    12    2   12 1   
    13    2   13 1   
    14    4   14 1   
    15    5   15 1   
    16    6   16 1   
    17    7   17 1   
    18    8   18 1   
@<TRIPOS>SUBSTRUCTURE
     1 MOL         1 TEMP              0 ****  ****    0 ROOT
