@<TRIPOS>MOLECULE
hexyl
   26    25     1     0     0
SMALL
No Charge or Current Charge


@<TRIPOS>ATOM
      1 C1          1.7560   -1.3900    0.8920 c3        1 MOL     -0.093300
      2 C2          1.1580   -1.8700    2.2060 c3        1 MOL     -0.081500
      3 C3         -0.1230   -1.1070    2.5460 c3        1 MOL     -0.079100
      4 C4         -0.7660   -1.5520    3.8620 c3        1 MOL     -0.075400
      5 C5         -2.0460   -0.7900    4.2020 c3        1 MOL     -0.116300
      6 C6         -2.6480   -1.2670    5.5170 c3        1 MOL      0.139800
      7 O1         -3.8300   -0.5240    5.7780 os        1 MOL     -0.461400
      8 C7         -4.4900   -0.8400    6.9330 c         1 MOL      0.637700
      9 O2         -4.1540   -1.6920    7.7440 o         1 MOL     -0.513900
     10 C8         -5.7100    0.0200    7.0760 c3        1 MOL     -0.161800
     11 H1          2.6710   -1.9480    0.6660 hc        1 MOL      0.032900
     12 H2          1.0550   -1.5380    0.0640 hc        1 MOL      0.032900
     13 H3          2.0100   -0.3270    0.9410 hc        1 MOL      0.032900
     14 H4          1.8950   -1.7360    3.0060 hc        1 MOL      0.037800
     15 H5          0.9530   -2.9420    2.1250 hc        1 MOL      0.037800
     16 H6         -0.8460   -1.2130    1.7280 hc        1 MOL      0.043700
     17 H7          0.1080   -0.0370    2.6240 hc        1 MOL      0.043700
     18 H8         -0.0360   -1.4010    4.6670 hc        1 MOL      0.041400
     19 H9         -0.9750   -2.6280    3.8230 hc        1 MOL      0.041400
     20 H10        -2.7920   -0.9090    3.4080 hc        1 MOL      0.050300
     21 H11        -1.8410    0.2860    4.2660 hc        1 MOL      0.050300
     22 H12        -2.9080   -2.3290    5.4640 h1        1 MOL      0.067300
     23 H13        -1.9500   -1.1120    6.3460 h1        1 MOL      0.067300
     24 H14        -6.5650   -0.4690    6.6030 hc        1 MOL      0.075100
     25 H15        -5.5290    0.9990    6.6260 hc        1 MOL      0.075100
     26 H16        -5.9320    0.1610    8.1370 hc        1 MOL      0.075100
@<TRIPOS>BOND
     1    1    2 1   
     2    2    3 1   
     3    3    4 1   
     4    4    5 1   
     5    5    6 1   
     6    6    7 1   
     7    7    8 1   
     8    8    9 2   
     9    8   10 1   
    10    1   11 1   
    11    1   12 1   
    12    1   13 1   
    13    2   14 1   
    14    2   15 1   
    15    3   16 1   
    16    3   17 1   
    17    4   18 1   
    18    4   19 1   
    19    5   20 1   
    20    5   21 1   
    21    6   22 1   
    22    6   23 1   
    23   10   24 1   
    24   10   25 1   
    25   10   26 1   
@<TRIPOS>SUBSTRUCTURE
     1 MOL         1 TEMP              0 ****  ****    0 ROOT
