@<TRIPOS>MOLECULE
methyl
   18    18     1     0     0
SMALL
No Charge or Current Charge


@<TRIPOS>ATOM
      1 C1          0.5830   -1.0170   -3.5060 c3        1 MOL      0.125800
      2 O1          0.6720   -1.0340   -2.0770 os        1 MOL     -0.439200
      3 C2          1.9290   -1.0160   -1.5660 c         1 MOL      0.645500
      4 O2          2.9700   -0.9870   -2.2040 o         1 MOL     -0.536300
      5 C3          1.8850   -1.0360   -0.1120 ca        1 MOL     -0.130600
      6 C4          2.9210   -1.6310    0.6080 ca        1 MOL     -0.073700
      7 C5          2.8780   -1.6520    2.0020 ca        1 MOL     -0.144500
      8 C6          1.8000   -1.0790    2.6760 ca        1 MOL     -0.099300
      9 C7          0.7640   -0.4840    1.9550 ca        1 MOL     -0.144500
     10 C8          0.8070   -0.4630    0.5610 ca        1 MOL     -0.073700
     11 H1         -0.4670   -1.0340   -3.8070 h1        1 MOL      0.050200
     12 H2          1.1040   -1.8870   -3.9140 h1        1 MOL      0.050200
     13 H3          1.0530   -0.1040   -3.8810 h1        1 MOL      0.050200
     14 H4          3.7660   -2.0810    0.0930 ha        1 MOL      0.153100
     15 H5          3.6850   -2.1150    2.5630 ha        1 MOL      0.139000
     16 H6          1.7660   -1.0950    3.7610 ha        1 MOL      0.135900
     17 H7         -0.0760   -0.0380    2.4800 ha        1 MOL      0.139000
     18 H8         -0.0060    0.0040    0.0100 ha        1 MOL      0.153100
@<TRIPOS>BOND
     1    1    2 1   
     2    2    3 1   
     3    3    4 2   
     4    3    5 1   
     5    5   10 ar  
     6    5    6 ar  
     7    6    7 ar  
     8    7    8 ar  
     9    8    9 ar  
    10    9   10 ar  
    11    1   11 1   
    12    1   12 1   
    13    1   13 1   
    14    6   14 1   
    15    7   15 1   
    16    8   16 1   
    17    9   17 1   
    18   10   18 1   
@<TRIPOS>SUBSTRUCTURE
     1 MOL         1 TEMP              0 ****  ****    0 ROOT
