@<TRIPOS>MOLECULE
2-[(1R)-1-methylpropyl]-4,6-dinitro-phenol
   29    29     1     0     0
SMALL
No Charge or Current Charge


@<TRIPOS>ATOM
      1 C1         -0.1700    3.0590    2.3980 c3        1 MOL     -0.095800
      2 C2          0.0340    1.6080    1.9790 c3        1 MOL     -0.074700
      3 C3         -0.9890    0.6450    2.6150 c3        1 MOL     -0.024500
      4 H1         -1.9880    0.9680    2.2940 hc        1 MOL      0.080300
      5 C4         -0.7900   -0.7770    2.0760 c3        1 MOL     -0.093500
      6 C5         -0.9440    0.6410    4.1340 ca        1 MOL     -0.092900
      7 C6          0.2380    0.2780    4.7790 ca        1 MOL     -0.018400
      8 C7          0.2990    0.2710    6.1720 ca        1 MOL     -0.210500
      9 C8         -0.8240    0.6260    6.9210 ca        1 MOL      0.003600
     10 C9         -2.0060    0.9880    6.2760 ca        1 MOL     -0.253500
     11 C10        -2.0660    0.9960    4.8820 ca        1 MOL      0.220100
     12 O1         -3.2190    1.3520    4.2440 oh        1 MOL     -0.467400
     13 N1         -3.1400    1.3470    7.0560 no        1 MOL      0.302600
     14 O2         -3.9490    0.4520    7.3970 o         1 MOL     -0.178700
     15 O3         -3.2970    2.5480    7.3800 o         1 MOL     -0.178700
     16 N2          1.5020   -0.1010    6.8290 no        1 MOL      0.322000
     17 O4          1.5350   -0.1010    8.0830 o         1 MOL     -0.199400
     18 O5          2.4990   -0.4190    6.1370 o         1 MOL     -0.199400
     19 H2          0.5800    3.6970    1.9190 hc        1 MOL      0.038200
     20 H3         -1.1570    3.4280    2.1030 hc        1 MOL      0.038200
     21 H4         -0.0680    3.1730    3.4820 hc        1 MOL      0.038200
     22 H5          0.0060    1.5440    0.8850 hc        1 MOL      0.046200
     23 H6          1.0450    1.3080    2.2830 hc        1 MOL      0.046200
     24 H7         -1.5040   -1.4840    2.5120 hc        1 MOL      0.042800
     25 H8         -0.9220   -0.7990    0.9890 hc        1 MOL      0.042800
     26 H9          0.2200   -1.1430    2.2970 hc        1 MOL      0.042800
     27 H10         1.1120    0.0020    4.1920 ha        1 MOL      0.185800
     28 H11        -0.7760    0.6200    8.0080 ha        1 MOL      0.193300
     29 H12        -3.9040    1.5720    4.8940 ho        1 MOL      0.444400
@<TRIPOS>BOND
     1    1    2 1   
     2    2    3 1   
     3    3    4 1   
     4    3    5 1   
     5    3    6 1   
     6    6   11 ar  
     7    6    7 ar  
     8    7    8 ar  
     9    8    9 ar  
    10    9   10 ar  
    11   10   11 ar  
    12   11   12 1   
    13   10   13 1   
    14   13   14 1   
    15   13   15 1   
    16    8   16 1   
    17   16   17 1   
    18   16   18 1   
    19    1   19 1   
    20    1   20 1   
    21    1   21 1   
    22    2   22 1   
    23    2   23 1   
    24    5   24 1   
    25    5   25 1   
    26    5   26 1   
    27    7   27 1   
    28    9   28 1   
    29   12   29 1   
@<TRIPOS>SUBSTRUCTURE
     1 MOL         1 TEMP              0 ****  ****    0 ROOT
