@<TRIPOS>MOLECULE
2-propoxyethanol
   19    18     1     0     0
SMALL
No Charge or Current Charge


@<TRIPOS>ATOM
      1 C1         -0.0020   -0.6660    0.8690 c3        1 MOL     -0.092400
      2 C2          1.2440   -0.4430    1.7060 c3        1 MOL     -0.081600
      3 C3          1.2750   -1.3490    2.9270 c3        1 MOL      0.128700
      4 O1          2.4630   -1.0900    3.6620 os        1 MOL     -0.418400
      5 C4          2.5500   -1.9090    4.8200 c3        1 MOL      0.090500
      6 C5          3.8340   -1.5870    5.5600 c3        1 MOL      0.125000
      7 O2          4.9400   -1.8430    4.7030 oh        1 MOL     -0.593400
      8 H1         -0.0100   -0.0070   -0.0060 hc        1 MOL      0.037700
      9 H2         -0.0430   -1.7000    0.5150 hc        1 MOL      0.037700
     10 H3         -0.9070   -0.4710    1.4530 hc        1 MOL      0.037700
     11 H4          1.2970    0.6050    2.0240 hc        1 MOL      0.048600
     12 H5          2.1390   -0.6180    1.0960 hc        1 MOL      0.048600
     13 H6          0.4150   -1.1590    3.5770 h1        1 MOL      0.028000
     14 H7          1.2710   -2.4040    2.6320 h1        1 MOL      0.028000
     15 H8          1.6740   -1.7100    5.4470 h1        1 MOL      0.030200
     16 H9          2.5440   -2.9560    4.5020 h1        1 MOL      0.030200
     17 H10         3.9430   -2.2120    6.4520 h1        1 MOL      0.059300
     18 H11         3.8590   -0.5310    5.8450 h1        1 MOL      0.059300
     19 H12         5.7400   -1.6270    5.2080 ho        1 MOL      0.396300
@<TRIPOS>BOND
     1    1    2 1   
     2    2    3 1   
     3    3    4 1   
     4    4    5 1   
     5    5    6 1   
     6    6    7 1   
     7    1    8 1   
     8    1    9 1   
     9    1   10 1   
    10    2   11 1   
    11    2   12 1   
    12    3   13 1   
    13    3   14 1   
    14    5   15 1   
    15    5   16 1   
    16    6   17 1   
    17    6   18 1   
    18    7   19 1   
@<TRIPOS>SUBSTRUCTURE
     1 MOL         1 TEMP              0 ****  ****    0 ROOT
