@<TRIPOS>MOLECULE
4-methylpentan-2-one
   19    18     1     0     0
SMALL
No Charge or Current Charge


@<TRIPOS>ATOM
      1 C1          4.7490   -1.8030    0.2530 c3        1 MOL     -0.093200
      2 C2          4.3440   -0.9800    1.4790 c3        1 MOL     -0.058200
      3 C3          5.1200   -1.4660    2.7050 c3        1 MOL     -0.093200
      4 C4          2.8340   -1.0710    1.7430 c3        1 MOL     -0.183300
      5 C5          1.9780   -0.5640    0.5920 c         1 MOL      0.567300
      6 O1          1.1630   -1.2720    0.0030 o         1 MOL     -0.534300
      7 C6          2.2110    0.8640    0.1710 c3        1 MOL     -0.202000
      8 H1          4.2020   -1.4670   -0.6350 hc        1 MOL      0.037900
      9 H2          5.8200   -1.7060    0.0450 hc        1 MOL      0.037900
     10 H3          4.5270   -2.8650    0.3940 hc        1 MOL      0.037900
     11 H4          4.6220    0.0660    1.2980 hc        1 MOL      0.045800
     12 H5          4.8450   -0.8890    3.5940 hc        1 MOL      0.037900
     13 H6          6.2010   -1.3660    2.5570 hc        1 MOL      0.037900
     14 H7          4.9020   -2.5190    2.9110 hc        1 MOL      0.037900
     15 H8          2.5690   -0.4640    2.6170 hc        1 MOL      0.067200
     16 H9          2.5520   -2.1090    1.9530 hc        1 MOL      0.067200
     17 H10         2.9830    0.8960   -0.6020 hc        1 MOL      0.063100
     18 H11         1.2860    1.2850   -0.2330 hc        1 MOL      0.063100
     19 H12         2.5180    1.4560    1.0370 hc        1 MOL      0.063100
@<TRIPOS>BOND
     1    1    2 1   
     2    2    3 1   
     3    2    4 1   
     4    4    5 1   
     5    5    6 2   
     6    5    7 1   
     7    1    8 1   
     8    1    9 1   
     9    1   10 1   
    10    2   11 1   
    11    3   12 1   
    12    3   13 1   
    13    3   14 1   
    14    4   15 1   
    15    4   16 1   
    16    7   17 1   
    17    7   18 1   
    18    7   19 1   
@<TRIPOS>SUBSTRUCTURE
     1 MOL         1 TEMP              0 ****  ****    0 ROOT
