@<TRIPOS>MOLECULE
bromo(trifluoro)methane
    5     4     1     0     0
SMALL
No Charge or Current Charge


@<TRIPOS>ATOM
      1 C1          0.0400   -0.0260   -0.0760 c3        1 MOL      0.707300
      2 F1          1.2210    0.6100   -0.2540 f         1 MOL     -0.207100
      3 F2          0.2900   -1.3560   -0.0650 f         1 MOL     -0.207100
      4 F3         -0.7320    0.2350   -1.1560 f         1 MOL     -0.207100
      5 Br1        -0.8200    0.5370    1.5520 br        1 MOL     -0.085900
@<TRIPOS>BOND
     1    1    2 1   
     2    1    3 1   
     3    1    4 1   
     4    1    5 1   
@<TRIPOS>SUBSTRUCTURE
     1 MOL         1 TEMP              0 ****  ****    0 ROOT
