@<TRIPOS>MOLECULE
2,2,5-trimethylhexane
   29    28     1     0     0
SMALL
No Charge or Current Charge


@<TRIPOS>ATOM
      1 C1         -0.8530   -1.8170    2.1090 c3        1 MOL     -0.089900
      2 C2         -0.9800   -1.9030    0.5870 c3        1 MOL     -0.067000
      3 C3         -0.6680   -3.3280    0.1240 c3        1 MOL     -0.089900
      4 C4         -0.0590   -0.9040   -0.1420 c3        1 MOL     -0.076400
      5 C5         -0.3450    0.5610    0.2210 c3        1 MOL     -0.067900
      6 C6          0.5520    1.6170   -0.4820 c3        1 MOL     -0.055200
      7 C7          0.3500    1.4790   -2.0050 c3        1 MOL     -0.086200
      8 C8          0.1630    3.0440   -0.0650 c3        1 MOL     -0.086200
      9 C9          2.0390    1.3840   -0.1680 c3        1 MOL     -0.086200
     10 H1         -1.0700   -0.8070    2.4710 hc        1 MOL      0.033000
     11 H2          0.1560   -2.0890    2.4390 hc        1 MOL      0.033000
     12 H3         -1.5620   -2.4940    2.5970 hc        1 MOL      0.033000
     13 H4         -2.0210   -1.6830    0.3170 hc        1 MOL      0.045000
     14 H5         -0.7520   -3.4200   -0.9640 hc        1 MOL      0.033000
     15 H6          0.3480   -3.6180    0.4120 hc        1 MOL      0.033000
     16 H7         -1.3590   -4.0460    0.5800 hc        1 MOL      0.033000
     17 H8          0.9860   -1.1460    0.0870 hc        1 MOL      0.040400
     18 H9         -0.1900   -1.0440   -1.2200 hc        1 MOL      0.040400
     19 H10        -0.2350    0.6850    1.3050 hc        1 MOL      0.039500
     20 H11        -1.3970    0.7790   -0.0090 hc        1 MOL      0.039500
     21 H12         0.9630    2.2040   -2.5520 hc        1 MOL      0.033600
     22 H13         0.6270    0.4770   -2.3520 hc        1 MOL      0.033600
     23 H14        -0.6960    1.6500   -2.2850 hc        1 MOL      0.033600
     24 H15         0.7960    3.7870   -0.5620 hc        1 MOL      0.033600
     25 H16        -0.8800    3.2690   -0.3140 hc        1 MOL      0.033600
     26 H17         0.2740    3.1830    1.0160 hc        1 MOL      0.033600
     27 H18         2.6690    2.1300   -0.6650 hc        1 MOL      0.033600
     28 H19         2.3740    0.3930   -0.4880 hc        1 MOL      0.033600
     29 H20         2.2290    1.4550    0.9090 hc        1 MOL      0.033600
@<TRIPOS>BOND
     1    1    2 1   
     2    2    3 1   
     3    2    4 1   
     4    4    5 1   
     5    5    6 1   
     6    6    7 1   
     7    6    8 1   
     8    6    9 1   
     9    1   10 1   
    10    1   11 1   
    11    1   12 1   
    12    2   13 1   
    13    3   14 1   
    14    3   15 1   
    15    3   16 1   
    16    4   17 1   
    17    4   18 1   
    18    5   19 1   
    19    5   20 1   
    20    7   21 1   
    21    7   22 1   
    22    7   23 1   
    23    8   24 1   
    24    8   25 1   
    25    8   26 1   
    26    9   27 1   
    27    9   28 1   
    28    9   29 1   
@<TRIPOS>SUBSTRUCTURE
     1 MOL         1 TEMP              0 ****  ****    0 ROOT
