@<TRIPOS>MOLECULE
2-ethoxyethyl
   21    20     1     0     0
SMALL
No Charge or Current Charge


@<TRIPOS>ATOM
      1 C1          1.2250   -0.5760   -5.4130 c3        1 MOL     -0.096900
      2 C2          0.2820    0.5840   -5.1800 c3        1 MOL      0.127800
      3 O1         -0.6780    0.2120   -4.2000 os        1 MOL     -0.410600
      4 C3         -1.5950    1.2670   -3.9400 c3        1 MOL      0.126300
      5 C4         -2.5900    0.8100   -2.8900 c3        1 MOL      0.138200
      6 O2         -1.8830    0.4730   -1.6920 os        1 MOL     -0.430800
      7 C5         -2.6580    0.0420   -0.6560 c         1 MOL      0.632800
      8 O3         -3.8750   -0.0770   -0.6610 o         1 MOL     -0.546600
      9 C6         -1.7880   -0.2730    0.5230 c3        1 MOL     -0.149700
     10 H1          1.9790   -0.3220   -6.1640 hc        1 MOL      0.045800
     11 H2          1.7330   -0.8540   -4.4830 hc        1 MOL      0.045800
     12 H3          0.6740   -1.4600   -5.7500 hc        1 MOL      0.045800
     13 H4         -0.2420    0.8440   -6.1050 h1        1 MOL      0.023300
     14 H5          0.8310    1.4600   -4.8210 h1        1 MOL      0.023300
     15 H6         -1.0260    2.1350   -3.5930 h1        1 MOL      0.037500
     16 H7         -2.1100    1.5120   -4.8730 h1        1 MOL      0.037500
     17 H8         -3.1370   -0.0770   -3.2240 h1        1 MOL      0.060800
     18 H9         -3.2960    1.6130   -2.6560 h1        1 MOL      0.060800
     19 H10        -1.6690    0.6170    1.1450 hc        1 MOL      0.076300
     20 H11        -0.8160   -0.6370    0.1800 hc        1 MOL      0.076300
     21 H12        -2.2600   -1.0570    1.1220 hc        1 MOL      0.076300
@<TRIPOS>BOND
     1    1    2 1   
     2    2    3 1   
     3    3    4 1   
     4    4    5 1   
     5    5    6 1   
     6    6    7 1   
     7    7    8 2   
     8    7    9 1   
     9    1   10 1   
    10    1   11 1   
    11    1   12 1   
    12    2   13 1   
    13    2   14 1   
    14    4   15 1   
    15    4   16 1   
    16    5   17 1   
    17    5   18 1   
    18    9   19 1   
    19    9   20 1   
    20    9   21 1   
@<TRIPOS>SUBSTRUCTURE
     1 MOL         1 TEMP              0 ****  ****    0 ROOT
