@<TRIPOS>MOLECULE
3,4-dimethylpyridine
   17    17     1     0     0
SMALL
No Charge or Current Charge


@<TRIPOS>ATOM
      1 C1          2.3330    0.9030    1.0250 c3        1 MOL     -0.062100
      2 C2          1.3880   -0.0680    1.6520 ca        1 MOL     -0.038300
      3 C3          0.2270   -0.4200    0.9730 ca        1 MOL     -0.245300
      4 C4         -0.6320   -1.3220    1.5800 ca        1 MOL      0.390500
      5 N1         -0.4090   -1.8820    2.7910 nb        1 MOL     -0.666400
      6 C5          0.7300   -1.5160    3.4210 ca        1 MOL      0.394200
      7 C6          1.6520   -0.6230    2.9000 ca        1 MOL     -0.192300
      8 C7          2.8800   -0.2800    3.6700 c3        1 MOL     -0.049200
      9 H1          3.0690    0.3690    0.4170 hc        1 MOL      0.049300
     10 H2          1.7970    1.6140    0.3890 hc        1 MOL      0.049300
     11 H3          2.8590    1.4840    1.7900 hc        1 MOL      0.049300
     12 H4         -0.0080   -0.0050   -0.0010 ha        1 MOL      0.141800
     13 H5         -1.5510   -1.6290    1.0920 h4        1 MOL      0.020800
     14 H6          0.8800   -1.9810    4.3900 h4        1 MOL      0.019800
     15 H7          3.6960   -0.9700    3.4180 hc        1 MOL      0.046300
     16 H8          3.2140    0.7440    3.4560 hc        1 MOL      0.046300
     17 H9          2.7020   -0.3350    4.7530 hc        1 MOL      0.046300
@<TRIPOS>BOND
     1    1    2 1   
     2    2    7 ar  
     3    2    3 ar  
     4    3    4 ar  
     5    4    5 ar  
     6    5    6 ar  
     7    6    7 ar  
     8    7    8 1   
     9    1    9 1   
    10    1   10 1   
    11    1   11 1   
    12    3   12 1   
    13    4   13 1   
    14    6   14 1   
    15    8   15 1   
    16    8   16 1   
    17    8   17 1   
@<TRIPOS>SUBSTRUCTURE
     1 MOL         1 TEMP              0 ****  ****    0 ROOT
