@<TRIPOS>MOLECULE
pyridine-3-carbonitrile
   12    12     1     0     0
SMALL
No Charge or Current Charge


@<TRIPOS>ATOM
      1 C1          1.6520   -0.6230    2.9000 ca        1 MOL     -0.249500
      2 C2          1.3880   -0.0680    1.6520 ca        1 MOL     -0.056300
      3 C3          0.2270   -0.4200    0.9730 ca        1 MOL     -0.135900
      4 C4         -0.6320   -1.3220    1.5800 ca        1 MOL      0.436400
      5 N1         -0.4090   -1.8820    2.7910 nb        1 MOL     -0.664300
      6 C5          0.7300   -1.5160    3.4210 ca        1 MOL      0.415900
      7 C6         -0.0720    0.1330   -0.3080 cg        1 MOL      0.235000
      8 N2         -0.3160    0.5830   -1.3530 n1        1 MOL     -0.351800
      9 H1          2.5510   -0.3640    3.4470 ha        1 MOL      0.153800
     10 H2          2.0960    0.6350    1.2220 ha        1 MOL      0.150800
     11 H3         -1.5550   -1.6380    1.1030 h4        1 MOL      0.036600
     12 H4          0.8890   -1.9760    4.3900 h4        1 MOL      0.029400
@<TRIPOS>BOND
     1    1    6 ar  
     2    1    2 ar  
     3    2    3 ar  
     4    3    4 ar  
     5    4    5 ar  
     6    5    6 ar  
     7    3    7 1   
     8    7    8 3   
     9    1    9 1   
    10    2   10 1   
    11    4   11 1   
    12    6   12 1   
@<TRIPOS>SUBSTRUCTURE
     1 MOL         1 TEMP              0 ****  ****    0 ROOT
