@<TRIPOS>MOLECULE
butan-1-amine
   16    15     1     0     0
SMALL
No Charge or Current Charge


@<TRIPOS>ATOM
      1 C1         -0.5040    0.9670   -0.1070 c3        1 MOL     -0.093300
      2 C2         -1.0390    1.4310    1.2390 c3        1 MOL     -0.075400
      3 C3         -1.8130    2.7450    1.1090 c3        1 MOL     -0.121200
      4 C4         -2.3630    3.2360    2.4450 c3        1 MOL      0.151700
      5 N1         -3.0890    4.4690    2.3190 n3        1 MOL     -0.907300
      6 H1          0.0480    0.0270   -0.0060 hc        1 MOL      0.033700
      7 H2         -1.3290    0.8030   -0.8070 hc        1 MOL      0.033700
      8 H3          0.1660    1.7150   -0.5420 hc        1 MOL      0.033700
      9 H4         -1.6920    0.6540    1.6530 hc        1 MOL      0.040500
     10 H5         -0.1990    1.5530    1.9320 hc        1 MOL      0.040500
     11 H6         -1.1640    3.5130    0.6710 hc        1 MOL      0.036700
     12 H7         -2.6530    2.6000    0.4190 hc        1 MOL      0.036700
     13 H8         -1.5600    3.3920    3.1720 h1        1 MOL      0.050400
     14 H9         -3.0570    2.4970    2.8570 h1        1 MOL      0.050400
     15 H10        -4.0560    4.4440    2.0360 hn        1 MOL      0.344500
     16 H11        -2.5820    5.3410    2.3130 hn        1 MOL      0.344500
@<TRIPOS>BOND
     1    1    2 1   
     2    2    3 1   
     3    3    4 1   
     4    4    5 1   
     5    1    6 1   
     6    1    7 1   
     7    1    8 1   
     8    2    9 1   
     9    2   10 1   
    10    3   11 1   
    11    3   12 1   
    12    4   13 1   
    13    4   14 1   
    14    5   15 1   
    15    5   16 1   
@<TRIPOS>SUBSTRUCTURE
     1 MOL         1 TEMP              0 ****  ****    0 ROOT
