@<TRIPOS>MOLECULE
pent-1-yne
   13    12     1     0     0
SMALL
No Charge or Current Charge


@<TRIPOS>ATOM
      1 C1         -1.1350    1.3800   -0.7540 c3        1 MOL     -0.093900
      2 C2          0.1020    0.6780   -0.2170 c3        1 MOL     -0.077600
      3 C3         -0.2100   -0.7520    0.2190 c3        1 MOL     -0.003000
      4 C4          0.9910   -1.4220    0.7360 c1        1 MOL     -0.138300
      5 C5          1.9700   -1.9730    1.1590 c1        1 MOL     -0.162900
      6 H1         -0.9020    2.4040   -1.0640 hc        1 MOL      0.034800
      7 H2         -1.5280    0.8430   -1.6230 hc        1 MOL      0.034800
      8 H3         -1.9230    1.4210    0.0050 hc        1 MOL      0.034800
      9 H4          0.8780    0.6750   -0.9920 hc        1 MOL      0.045900
     10 H5          0.5030    1.2510    0.6290 hc        1 MOL      0.045900
     11 H6         -0.6090   -1.3210   -0.6290 hc        1 MOL      0.058200
     12 H7         -0.9860   -0.7430    0.9940 hc        1 MOL      0.058200
     13 H8          2.8390   -2.4610    1.5350 ha        1 MOL      0.163200
@<TRIPOS>BOND
     1    1    2 1   
     2    2    3 1   
     3    3    4 1   
     4    4    5 3   
     5    1    6 1   
     6    1    7 1   
     7    1    8 1   
     8    2    9 1   
     9    2   10 1   
    10    3   11 1   
    11    3   12 1   
    12    5   13 1   
@<TRIPOS>SUBSTRUCTURE
     1 MOL         1 TEMP              0 ****  ****    0 ROOT
