@<TRIPOS>MOLECULE
(Z)-pent-2-ene
   15    14     1     0     0
SMALL
No Charge or Current Charge


@<TRIPOS>ATOM
      1 C1          2.0320    2.2810   -0.2500 c3        1 MOL     -0.087900
      2 C2          1.0740    1.7590    0.8090 c3        1 MOL     -0.052900
      3 C3          0.8260    0.2890    0.6460 c2        1 MOL     -0.170400
      4 C4          1.5640   -0.6620    1.2360 c2        1 MOL     -0.168700
      5 C5          2.7260   -0.3780    2.1290 c3        1 MOL     -0.067300
      6 H1          2.2000    3.3540   -0.1130 hc        1 MOL      0.034000
      7 H2          1.6300    2.1270   -1.2570 hc        1 MOL      0.034000
      8 H3          3.0030    1.7780   -0.1900 hc        1 MOL      0.034000
      9 H4          1.5000    1.9350    1.8040 hc        1 MOL      0.043000
     10 H5          0.1370    2.3250    0.7580 hc        1 MOL      0.043000
     11 H6          0.0000    0.0000    0.0000 ha        1 MOL      0.119500
     12 H7          1.3250   -1.7090    1.0690 ha        1 MOL      0.117100
     13 H8          2.3870   -0.2910    3.1650 hc        1 MOL      0.040900
     14 H9          3.2400    0.5500    1.8590 hc        1 MOL      0.040900
     15 H10         3.4490   -1.1970    2.0710 hc        1 MOL      0.040900
@<TRIPOS>BOND
     1    1    2 1   
     2    2    3 1   
     3    3    4 2   
     4    4    5 1   
     5    1    6 1   
     6    1    7 1   
     7    1    8 1   
     8    2    9 1   
     9    2   10 1   
    10    3   11 1   
    11    4   12 1   
    12    5   13 1   
    13    5   14 1   
    14    5   15 1   
@<TRIPOS>SUBSTRUCTURE
     1 MOL         1 TEMP              0 ****  ****    0 ROOT
