@<TRIPOS>MOLECULE
1-iodopropane
   11    10     1     0     0
SMALL
No Charge or Current Charge


@<TRIPOS>ATOM
      1 C1         -0.5090   -0.5490    0.7980 c3        1 MOL     -0.095200
      2 C2          0.3040   -0.5210    2.0830 c3        1 MOL     -0.076900
      3 C3          1.6750   -1.1640    1.8860 c3        1 MOL      0.069500
      4 I1          2.8010   -1.1140    3.7030 i         1 MOL     -0.255100
      5 H1         -1.4870   -0.0850    0.9590 hc        1 MOL      0.036900
      6 H2          0.0000   -0.0000   -0.0000 hc        1 MOL      0.036900
      7 H3         -0.6720   -1.5770    0.4600 hc        1 MOL      0.036900
      8 H4         -0.2530   -1.0470    2.8690 hc        1 MOL      0.052200
      9 H5          0.4150    0.5190    2.4120 hc        1 MOL      0.052200
     10 H6          2.2290   -0.6350    1.1020 h1        1 MOL      0.071300
     11 H7          1.5600   -2.2040    1.5600 h1        1 MOL      0.071300
@<TRIPOS>BOND
     1    1    2 1   
     2    2    3 1   
     3    3    4 1   
     4    1    5 1   
     5    1    6 1   
     6    1    7 1   
     7    2    8 1   
     8    2    9 1   
     9    3   10 1   
    10    3   11 1   
@<TRIPOS>SUBSTRUCTURE
     1 MOL         1 TEMP              0 ****  ****    0 ROOT
