@<TRIPOS>MOLECULE
1,4-dimethylpiperazine
   22    22     1     0     0
SMALL
No Charge or Current Charge


@<TRIPOS>ATOM
      1 C1          1.8320    0.0010    1.9360 c3        1 MOL      0.152800
      2 N1          1.6130   -1.0120    0.9050 n3        1 MOL     -0.724200
      3 C2          2.8770   -1.6610    0.5350 c3        1 MOL      0.162800
      4 C3          2.6490   -2.7210   -0.5480 c3        1 MOL      0.162800
      5 N2          2.0110   -2.1300   -1.7310 n3        1 MOL     -0.724200
      6 C4          0.7470   -1.4820   -1.3610 c3        1 MOL      0.162800
      7 C5          0.9730   -0.4230   -0.2780 c3        1 MOL      0.162800
      8 C6          1.7940   -3.1420   -2.7630 c3        1 MOL      0.152800
      9 H1          2.3080   -0.4500    2.8110 h1        1 MOL      0.032000
     10 H2          0.8790    0.4410    2.2420 h1        1 MOL      0.032000
     11 H3          2.4780    0.7960    1.5540 h1        1 MOL      0.032000
     12 H4          3.6080   -0.9210    0.1800 h1        1 MOL      0.037500
     13 H5          3.3120   -2.1530    1.4130 h1        1 MOL      0.037500
     14 H6          3.6220   -3.1450   -0.8250 h1        1 MOL      0.037500
     15 H7          2.0400   -3.5390   -0.1410 h1        1 MOL      0.037500
     16 H8          0.3120   -0.9900   -2.2390 h1        1 MOL      0.037500
     17 H9          0.0160   -2.2220   -1.0070 h1        1 MOL      0.037500
     18 H10         1.5810    0.3970   -0.6840 h1        1 MOL      0.037500
     19 H11         0.0000    0.0000   -0.0000 h1        1 MOL      0.037500
     20 H12         1.3220   -2.6730   -3.6210 h1        1 MOL      0.032000
     21 H13         1.1510   -3.9200   -2.3650 h1        1 MOL      0.032000
     22 H14         2.7510   -3.5650   -3.0510 h1        1 MOL      0.032000
@<TRIPOS>BOND
     1    1    2 1   
     2    2    7 1   
     3    2    3 1   
     4    3    4 1   
     5    4    5 1   
     6    5    6 1   
     7    6    7 1   
     8    5    8 1   
     9    1    9 1   
    10    1   10 1   
    11    1   11 1   
    12    3   12 1   
    13    3   13 1   
    14    4   14 1   
    15    4   15 1   
    16    6   16 1   
    17    6   17 1   
    18    7   18 1   
    19    7   19 1   
    20    8   20 1   
    21    8   21 1   
    22    8   22 1   
@<TRIPOS>SUBSTRUCTURE
     1 MOL         1 TEMP              0 ****  ****    0 ROOT
