@<TRIPOS>MOLECULE
2,3-dimethylbutane
   20    19     1     0     0
SMALL
No Charge or Current Charge


@<TRIPOS>ATOM
      1 C1          0.5110   -0.7950    0.5540 c3        1 MOL     -0.089200
      2 C2          1.2460   -0.2130    1.7650 c3        1 MOL     -0.061900
      3 C3          0.2490    0.5310    2.6600 c3        1 MOL     -0.089200
      4 C4          2.0680   -1.2570    2.5680 c3        1 MOL     -0.061900
      5 C5          1.2320   -2.4040    3.1420 c3        1 MOL     -0.089200
      6 C6          3.2220   -1.8290    1.7380 c3        1 MOL     -0.089200
      7 H1          1.1900   -1.3370   -0.1110 hc        1 MOL      0.033200
      8 H2         -0.2620   -1.5010    0.8800 hc        1 MOL      0.033200
      9 H3          0.0110   -0.0140   -0.0250 hc        1 MOL      0.033200
     10 H4          1.9520    0.5380    1.3870 hc        1 MOL      0.041400
     11 H5          0.7600    0.9540    3.5330 hc        1 MOL      0.033200
     12 H6         -0.2360    1.3570    2.1310 hc        1 MOL      0.033200
     13 H7         -0.5280   -0.1450    3.0290 hc        1 MOL      0.033200
     14 H8          2.5230   -0.7300    3.4180 hc        1 MOL      0.041400
     15 H9          1.8520   -3.1130    3.6990 hc        1 MOL      0.033200
     16 H10         0.4440   -2.0390    3.8080 hc        1 MOL      0.033200
     17 H11         0.7470   -2.9630    2.3340 hc        1 MOL      0.033200
     18 H12         3.8050   -2.5650    2.3000 hc        1 MOL      0.033200
     19 H13         3.9070   -1.0300    1.4330 hc        1 MOL      0.033200
     20 H14         2.8480   -2.3090    0.8270 hc        1 MOL      0.033200
@<TRIPOS>BOND
     1    1    2 1   
     2    2    3 1   
     3    2    4 1   
     4    4    5 1   
     5    4    6 1   
     6    1    7 1   
     7    1    8 1   
     8    1    9 1   
     9    2   10 1   
    10    3   11 1   
    11    3   12 1   
    12    3   13 1   
    13    4   14 1   
    14    5   15 1   
    15    5   16 1   
    16    5   17 1   
    17    6   18 1   
    18    6   19 1   
    19    6   20 1   
@<TRIPOS>SUBSTRUCTURE
     1 MOL         1 TEMP              0 ****  ****    0 ROOT
