@<TRIPOS>MOLECULE
pentan-2-one
   16    15     1     0     0
SMALL
No Charge or Current Charge


@<TRIPOS>ATOM
      1 C1          1.8920   -0.6090   -4.8580 c3        1 MOL     -0.093100
      2 C2          1.0380    0.3830   -4.0850 c3        1 MOL     -0.076100
      3 C3          1.1480    0.1610   -2.5790 c3        1 MOL     -0.179400
      4 C4          0.3030    1.1400   -1.7830 c         1 MOL      0.561900
      5 O1         -0.3870    2.0100   -2.3110 o         1 MOL     -0.534100
      6 C5          0.3520    0.9910   -0.2840 c3        1 MOL     -0.203300
      7 H1          1.8070   -0.4420   -5.9360 hc        1 MOL      0.034000
      8 H2          1.5870   -1.6380   -4.6450 hc        1 MOL      0.034000
      9 H3          2.9450   -0.5010   -4.5790 hc        1 MOL      0.034000
     10 H4         -0.0070    0.2850   -4.4020 hc        1 MOL      0.053500
     11 H5          1.3510    1.4030   -4.3360 hc        1 MOL      0.053500
     12 H6          0.8160   -0.8530   -2.3260 hc        1 MOL      0.063100
     13 H7          2.1890    0.2770   -2.2590 hc        1 MOL      0.063100
     14 H8          1.1580    1.6090    0.1190 hc        1 MOL      0.062900
     15 H9          0.5140   -0.0580   -0.0250 hc        1 MOL      0.062900
     16 H10        -0.5970    1.3200    0.1510 hc        1 MOL      0.062900
@<TRIPOS>BOND
     1    1    2 1   
     2    2    3 1   
     3    3    4 1   
     4    4    5 2   
     5    4    6 1   
     6    1    7 1   
     7    1    8 1   
     8    1    9 1   
     9    2   10 1   
    10    2   11 1   
    11    3   12 1   
    12    3   13 1   
    13    6   14 1   
    14    6   15 1   
    15    6   16 1   
@<TRIPOS>SUBSTRUCTURE
     1 MOL         1 TEMP              0 ****  ****    0 ROOT
