@<TRIPOS>MOLECULE
4-nitroaniline
   16    16     1     0     0
SMALL
No Charge or Current Charge


@<TRIPOS>ATOM
      1 C1          1.8850   -1.0360   -0.1120 ca        1 MOL     -0.225900
      2 C2          2.9210   -1.6310    0.6080 ca        1 MOL     -0.015700
      3 C3          2.8780   -1.6520    2.0020 ca        1 MOL     -0.244400
      4 C4          1.8000   -1.0790    2.6760 ca        1 MOL     -0.015700
      5 C5          0.7640   -0.4840    1.9550 ca        1 MOL     -0.225900
      6 C6          0.8070   -0.4630    0.5610 ca        1 MOL      0.224600
      7 N1         -0.2410    0.1370   -0.1680 nh        1 MOL     -0.851900
      8 N2          3.9340   -2.2560    2.7360 no        1 MOL      0.323000
      9 O1          4.8950   -2.7650    2.1100 o         1 MOL     -0.220700
     10 O2          3.8760   -2.2640    3.9890 o         1 MOL     -0.220700
     11 H1          1.9290   -1.0260   -1.1990 ha        1 MOL      0.144400
     12 H2          3.7560   -2.0740    0.0710 ha        1 MOL      0.168300
     13 H3          1.7550   -1.0890    3.7620 ha        1 MOL      0.168300
     14 H4         -0.0720   -0.0400    2.4910 ha        1 MOL      0.144400
     15 H5         -0.1760    0.1880   -1.1640 hn        1 MOL      0.423900
     16 H6         -0.9860    0.5850    0.3280 hn        1 MOL      0.423900
@<TRIPOS>BOND
     1    1    6 ar  
     2    1    2 ar  
     3    2    3 ar  
     4    3    4 ar  
     5    4    5 ar  
     6    5    6 ar  
     7    6    7 1   
     8    3    8 1   
     9    8    9 1   
    10    8   10 1   
    11    1   11 1   
    12    2   12 1   
    13    4   13 1   
    14    5   14 1   
    15    7   15 1   
    16    7   16 1   
@<TRIPOS>SUBSTRUCTURE
     1 MOL         1 TEMP              0 ****  ****    0 ROOT
