@<TRIPOS>MOLECULE
2-chloro-2-methyl-propane
   14    13     1     0     0
SMALL
No Charge or Current Charge


@<TRIPOS>ATOM
      1 C1          0.7750    0.2120   -0.7460 c3        1 MOL     -0.099000
      2 C2          0.5640    1.5790   -1.3990 c3        1 MOL      0.080000
      3 C3         -0.8100    1.6430   -2.0700 c3        1 MOL     -0.099000
      4 C4          1.6690    1.8600   -2.4170 c3        1 MOL     -0.099000
      5 Cl1         0.6330    2.8390   -0.1190 cl        1 MOL     -0.214900
      6 H1          1.7550    0.1470   -0.2590 hc        1 MOL      0.048000
      7 H2          0.0110    0.0080    0.0130 hc        1 MOL      0.048000
      8 H3          0.7230   -0.5900   -1.4900 hc        1 MOL      0.048000
      9 H4         -0.9790    2.6170   -2.5440 hc        1 MOL      0.048000
     10 H5         -0.9150    0.8720   -2.8410 hc        1 MOL      0.048000
     11 H6         -1.6110    1.4880   -1.3380 hc        1 MOL      0.048000
     12 H7          1.5340    2.8370   -2.8960 hc        1 MOL      0.048000
     13 H8          1.6900    1.1000   -3.2070 hc        1 MOL      0.048000
     14 H9          2.6540    1.8620   -1.9360 hc        1 MOL      0.048000
@<TRIPOS>BOND
     1    1    2 1   
     2    2    3 1   
     3    2    4 1   
     4    2    5 1   
     5    1    6 1   
     6    1    7 1   
     7    1    8 1   
     8    3    9 1   
     9    3   10 1   
    10    3   11 1   
    11    4   12 1   
    12    4   13 1   
    13    4   14 1   
@<TRIPOS>SUBSTRUCTURE
     1 MOL         1 TEMP              0 ****  ****    0 ROOT
