@<TRIPOS>MOLECULE
1,1,1,2-tetramethoxyethane
   24    23     1     0     0
SMALL
No Charge or Current Charge


@<TRIPOS>ATOM
      1 C1          1.6880   -1.6000   -2.9710 c3        1 MOL      0.109100
      2 O1          0.7590   -1.4730   -1.9040 os        1 MOL     -0.386900
      3 C2          0.9070   -0.2290   -1.2280 c3        1 MOL      0.107700
      4 C3         -0.1170   -0.1300   -0.0790 c3        1 MOL      0.529400
      5 O2         -0.2210   -1.4130    0.5780 os        1 MOL     -0.439100
      6 C4          0.8090   -1.7090    1.5100 c3        1 MOL      0.132100
      7 O3         -1.3790    0.1790   -0.7160 os        1 MOL     -0.439100
      8 C5         -2.4630    0.3120    0.1950 c3        1 MOL      0.132100
      9 O4          0.2610    0.8880    0.8680 os        1 MOL     -0.439100
     10 C6          0.3690    2.2070    0.3520 c3        1 MOL      0.132100
     11 H1          1.5460   -2.5640   -3.4660 h1        1 MOL      0.035500
     12 H2          2.7060   -1.5260   -2.5800 h1        1 MOL      0.035500
     13 H3          1.5160   -0.7960   -3.6900 h1        1 MOL      0.035500
     14 H4          1.9350   -0.1470   -0.8620 h1        1 MOL      0.047100
     15 H5          0.7470    0.5630   -1.9670 h1        1 MOL      0.047100
     16 H6          0.6310   -2.6950    1.9420 h1        1 MOL      0.040100
     17 H7          0.8170   -0.9490    2.2920 h1        1 MOL      0.040100
     18 H8          1.7660   -1.7060    0.9870 h1        1 MOL      0.040100
     19 H9         -3.3720    0.5430   -0.3600 h1        1 MOL      0.040100
     20 H10        -2.2390    1.1080    0.9060 h1        1 MOL      0.040100
     21 H11        -2.5880   -0.6310    0.7280 h1        1 MOL      0.040100
     22 H12         0.6590    2.8860    1.1550 h1        1 MOL      0.040100
     23 H13        -0.5910    2.5090   -0.0710 h1        1 MOL      0.040100
     24 H14         1.1320    2.2170   -0.4280 h1        1 MOL      0.040100
@<TRIPOS>BOND
     1    1    2 1   
     2    2    3 1   
     3    3    4 1   
     4    4    5 1   
     5    5    6 1   
     6    4    7 1   
     7    7    8 1   
     8    4    9 1   
     9    9   10 1   
    10    1   11 1   
    11    1   12 1   
    12    1   13 1   
    13    3   14 1   
    14    3   15 1   
    15    6   16 1   
    16    6   17 1   
    17    6   18 1   
    18    8   19 1   
    19    8   20 1   
    20    8   21 1   
    21   10   22 1   
    22   10   23 1   
    23   10   24 1   
@<TRIPOS>SUBSTRUCTURE
     1 MOL         1 TEMP              0 ****  ****    0 ROOT
