@<TRIPOS>MOLECULE
butyric
   14    13     1     0     0
SMALL
No Charge or Current Charge


@<TRIPOS>ATOM
      1 C1          0.6080   -0.7280    0.5470 c3        1 MOL     -0.107200
      2 C2         -0.1900   -1.3680    1.6740 c3        1 MOL     -0.090700
      3 C3         -0.7520   -0.3450    2.6540 c3        1 MOL     -0.168900
      4 C4         -1.5390   -1.0020    3.7610 c         1 MOL      0.621200
      5 O1         -1.7020   -2.2120    3.8550 o         1 MOL     -0.491100
      6 O2         -2.0270   -0.1140    4.6610 oh        1 MOL     -0.587200
      7 H1          1.0000   -1.4820   -0.1420 hc        1 MOL      0.045600
      8 H2          1.4490   -0.1490    0.9420 hc        1 MOL      0.045600
      9 H3         -0.0300   -0.0490   -0.0280 hc        1 MOL      0.045600
     10 H4         -1.0230   -1.9310    1.2350 hc        1 MOL      0.045600
     11 H5          0.4460   -2.0900    2.2000 hc        1 MOL      0.045600
     12 H6          0.0370    0.2920    3.0670 hc        1 MOL      0.085600
     13 H7         -1.4410    0.3310    2.1330 hc        1 MOL      0.085600
     14 H8         -1.8280    0.8290    4.4730 ho        1 MOL      0.424900
@<TRIPOS>BOND
     1    1    2 1   
     2    2    3 1   
     3    3    4 1   
     4    4    5 2   
     5    4    6 1   
     6    1    7 1   
     7    1    8 1   
     8    1    9 1   
     9    2   10 1   
    10    2   11 1   
    11    3   12 1   
    12    3   13 1   
    13    6   14 1   
@<TRIPOS>SUBSTRUCTURE
     1 MOL         1 TEMP              0 ****  ****    0 ROOT
