@<TRIPOS>MOLECULE
cyclohepta-1,3,5-triene
   15    15     1     0     0
SMALL
No Charge or Current Charge


@<TRIPOS>ATOM
      1 C1          0.5610    1.5770    0.2580 c3        1 MOL     -0.009600
      2 C2          1.5400    0.4460    0.1720 c2        1 MOL     -0.141200
      3 C3          1.3580   -0.8470   -0.1190 ce        1 MOL     -0.133600
      4 C4          0.1440   -1.5190   -0.4990 ce        1 MOL     -0.119500
      5 C5         -1.1160   -1.0900   -0.3790 cf        1 MOL     -0.119500
      6 C6         -1.5890    0.1560    0.1630 cf        1 MOL     -0.133600
      7 C7         -0.8980    1.2760    0.4040 c2        1 MOL     -0.141200
      8 H1          0.7030    2.2360   -0.6060 hc        1 MOL      0.048200
      9 H2          0.8460    2.1650    1.1410 hc        1 MOL      0.048200
     10 H3          2.5680    0.7450    0.3800 ha        1 MOL      0.113400
     11 H4          2.2390   -1.4880   -0.1210 ha        1 MOL      0.118000
     12 H5          0.2980   -2.5090   -0.9270 ha        1 MOL      0.119500
     13 H6         -1.9070   -1.7570   -0.7180 ha        1 MOL      0.119500
     14 H7         -2.6620    0.1810    0.3460 ha        1 MOL      0.118000
     15 H8         -1.4820    2.1230    0.7670 ha        1 MOL      0.113400
@<TRIPOS>BOND
     1    1    7 1   
     2    1    2 1   
     3    2    3 2   
     4    3    4 1   
     5    4    5 2   
     6    5    6 1   
     7    6    7 2   
     8    1    8 1   
     9    1    9 1   
    10    2   10 1   
    11    3   11 1   
    12    4   12 1   
    13    5   13 1   
    14    6   14 1   
    15    7   15 1   
@<TRIPOS>SUBSTRUCTURE
     1 MOL         1 TEMP              0 ****  ****    0 ROOT
