@<TRIPOS>MOLECULE
6-chloro-N2,N4-diethyl-1,3,5-triazine-2,4-diamine
   25    25     1     0     0
SMALL
No Charge or Current Charge


@<TRIPOS>ATOM
      1 C1          3.3390   -0.2460    2.5410 c3        1 MOL     -0.127100
      2 C2          3.4970   -0.5990    1.1010 c3        1 MOL      0.214100
      3 N1          2.3150   -1.2360    0.5900 nh        1 MOL     -0.835500
      4 C3          2.1750   -1.6750   -0.7210 ca        1 MOL      0.926200
      5 N2          3.2220   -1.4790   -1.5380 nb        1 MOL     -0.835300
      6 C4          3.0150   -1.9280   -2.7870 ca        1 MOL      0.926200
      7 N3          1.9030   -2.5230   -3.2500 nb        1 MOL     -0.804600
      8 C5          0.9420   -2.6510   -2.3220 ca        1 MOL      0.802000
      9 N4          1.0060   -2.2520   -1.0420 nb        1 MOL     -0.804600
     10 Cl1        -0.5110   -3.3990   -2.8210 cl        1 MOL     -0.114200
     11 N5          4.0720   -1.7570   -3.7060 nh        1 MOL     -0.835500
     12 C6          5.3130   -1.1410   -3.3550 c3        1 MOL      0.214100
     13 C7          6.2470   -1.0930   -4.5190 c3        1 MOL     -0.127100
     14 H1          4.2420    0.2400    2.9250 hc        1 MOL      0.047200
     15 H2          2.4810    0.4190    2.6880 hc        1 MOL      0.047200
     16 H3          3.1670   -1.1550    3.1290 hc        1 MOL      0.047200
     17 H4          4.3350   -1.2900    0.9650 h1        1 MOL      0.059100
     18 H5          3.6790    0.2970    0.4990 h1        1 MOL      0.059100
     19 H6          1.5310   -1.3790    1.2220 hn        1 MOL      0.440800
     20 H7          3.9200   -2.0900   -4.6390 hn        1 MOL      0.440800
     21 H8          5.1020   -0.1270   -2.9970 h1        1 MOL      0.059100
     22 H9          5.7570   -1.7140   -2.5320 h1        1 MOL      0.059100
     23 H10         7.1940   -0.6200   -4.2390 hc        1 MOL      0.047200
     24 H11         6.4460   -2.1010   -4.8990 hc        1 MOL      0.047200
     25 H12         5.8040   -0.5060   -5.3330 hc        1 MOL      0.047200
@<TRIPOS>BOND
     1    1    2 1   
     2    2    3 1   
     3    3    4 1   
     4    4    9 ar  
     5    4    5 ar  
     6    5    6 ar  
     7    6    7 ar  
     8    7    8 ar  
     9    8    9 ar  
    10    8   10 1   
    11    6   11 1   
    12   11   12 1   
    13   12   13 1   
    14    1   14 1   
    15    1   15 1   
    16    1   16 1   
    17    2   17 1   
    18    2   18 1   
    19    3   19 1   
    20   11   20 1   
    21   12   21 1   
    22   12   22 1   
    23   13   23 1   
    24   13   24 1   
    25   13   25 1   
@<TRIPOS>SUBSTRUCTURE
     1 MOL         1 TEMP              0 ****  ****    0 ROOT
