@<TRIPOS>MOLECULE
acetonyl
   13    12     1     0     0
SMALL
No Charge or Current Charge


@<TRIPOS>ATOM
      1 C1         -0.4710    0.2910   -0.9330 c3        1 MOL     -0.204100
      2 C2         -1.7470    1.0400   -0.6550 c         1 MOL      0.567100
      3 O1         -1.9070    2.1960   -1.0420 o         1 MOL     -0.476000
      4 C3         -2.8080    0.2890    0.1210 c3        1 MOL      0.015800
      5 O2         -3.9500    1.0980    0.3140 os        1 MOL     -0.321600
      6 N1         -4.9960    0.4560    1.0410 no        1 MOL      0.374300
      7 O3         -4.7970   -0.7030    1.4120 o         1 MOL     -0.176200
      8 O4         -5.9850    1.1730    1.2020 o         1 MOL     -0.176200
      9 H1          0.2400    0.4580   -0.1190 hc        1 MOL      0.073300
     10 H2         -0.6810   -0.7780   -1.0040 hc        1 MOL      0.073300
     11 H3         -0.0300    0.6520   -1.8660 hc        1 MOL      0.073300
     12 H4         -2.4120   -0.0100    1.0950 h1        1 MOL      0.088500
     13 H5         -3.1040   -0.5970   -0.4450 h1        1 MOL      0.088500
@<TRIPOS>BOND
     1    1    2 1   
     2    2    3 2   
     3    2    4 1   
     4    4    5 1   
     5    5    6 1   
     6    6    7 1   
     7    6    8 1   
     8    1    9 1   
     9    1   10 1   
    10    1   11 1   
    11    4   12 1   
    12    4   13 1   
@<TRIPOS>SUBSTRUCTURE
     1 MOL         1 TEMP              0 ****  ****    0 ROOT
