@<TRIPOS>MOLECULE
3-hydroxybenzonitrile
   14    14     1     0     0
SMALL
No Charge or Current Charge


@<TRIPOS>ATOM
      1 C1          1.8850   -1.0360   -0.1120 ca        1 MOL     -0.096100
      2 C2          2.9210   -1.6310    0.6080 ca        1 MOL     -0.127900
      3 C3          2.8780   -1.6520    2.0020 ca        1 MOL      0.016900
      4 C4          1.8000   -1.0790    2.6760 ca        1 MOL     -0.120100
      5 C5          0.7640   -0.4840    1.9550 ca        1 MOL      0.121500
      6 C6          0.8070   -0.4630    0.5610 ca        1 MOL     -0.192700
      7 O1         -0.2880    0.0770    2.6120 oh        1 MOL     -0.492600
      8 C7          3.9400   -2.2610    2.7400 cg        1 MOL      0.232000
      9 N1          4.8030   -2.7570    3.3400 n1        1 MOL     -0.357200
     10 H1          1.9180   -1.0200   -1.1980 ha        1 MOL      0.141100
     11 H2          3.7550   -2.0740    0.0690 ha        1 MOL      0.148300
     12 H3          1.7580   -1.0890    3.7630 ha        1 MOL      0.163800
     13 H4          0.0030   -0.0000   -0.0050 ha        1 MOL      0.140000
     14 H5         -0.9220    0.4470    1.9780 ho        1 MOL      0.422900
@<TRIPOS>BOND
     1    1    6 ar  
     2    1    2 ar  
     3    2    3 ar  
     4    3    4 ar  
     5    4    5 ar  
     6    5    6 ar  
     7    5    7 1   
     8    3    8 1   
     9    8    9 3   
    10    1   10 1   
    11    2   11 1   
    12    4   12 1   
    13    6   13 1   
    14    7   14 1   
@<TRIPOS>SUBSTRUCTURE
     1 MOL         1 TEMP              0 ****  ****    0 ROOT
