@<TRIPOS>MOLECULE
1-nitrobutane
   16    15     1     0     0
SMALL
No Charge or Current Charge


@<TRIPOS>ATOM
      1 C1         -0.4740    0.9660   -0.2040 c3        1 MOL     -0.095300
      2 C2         -1.0730    1.5380    1.0710 c3        1 MOL     -0.077200
      3 C3         -1.7900    2.8640    0.8060 c3        1 MOL     -0.095300
      4 C4         -2.3980    3.4560    2.0690 c3        1 MOL     -0.076600
      5 N1         -3.0650    4.7170    1.7460 no        1 MOL      0.228700
      6 O1         -4.2690    4.6750    1.4220 o         1 MOL     -0.210300
      7 O2         -2.3920    5.7670    1.7940 o         1 MOL     -0.210300
      8 H1          0.0360    0.0180   -0.0070 hc        1 MOL      0.040200
      9 H2         -1.2600    0.7800   -0.9430 hc        1 MOL      0.040200
     10 H3          0.2480    1.6610   -0.6450 hc        1 MOL      0.040200
     11 H4         -1.7780    0.8130    1.4940 hc        1 MOL      0.045700
     12 H5         -0.2740    1.6810    1.8060 hc        1 MOL      0.045700
     13 H6         -1.0850    3.5800    0.3650 hc        1 MOL      0.067900
     14 H7         -2.5890    2.7020    0.0730 hc        1 MOL      0.067900
     15 H8         -1.6380    3.6470    2.8330 h1        1 MOL      0.094200
     16 H9         -3.1470    2.7770    2.4880 h1        1 MOL      0.094200
@<TRIPOS>BOND
     1    1    2 1   
     2    2    3 1   
     3    3    4 1   
     4    4    5 1   
     5    5    6 1   
     6    5    7 1   
     7    1    8 1   
     8    1    9 1   
     9    1   10 1   
    10    2   11 1   
    11    2   12 1   
    12    3   13 1   
    13    3   14 1   
    14    4   15 1   
    15    4   16 1   
@<TRIPOS>SUBSTRUCTURE
     1 MOL         1 TEMP              0 ****  ****    0 ROOT
