@<TRIPOS>MOLECULE
prop-1-ene
    9     8     1     0     0
SMALL
No Charge or Current Charge


@<TRIPOS>ATOM
      1 C1          0.8800   -1.4500    2.1740 c3        1 MOL     -0.069200
      2 C2          1.3490   -1.4450    0.7580 c2        1 MOL     -0.164300
      3 C3          0.8210   -0.6790   -0.2030 c2        1 MOL     -0.227100
      4 H1          0.0900   -2.1970    2.3030 hc        1 MOL      0.041000
      5 H2          0.4830   -0.4780    2.4830 hc        1 MOL      0.041000
      6 H3          1.7090   -1.7070    2.8410 hc        1 MOL      0.041000
      7 H4          2.1710   -2.1090    0.5060 ha        1 MOL      0.116900
      8 H5          1.2090   -0.7220   -1.2140 ha        1 MOL      0.110300
      9 H6          0.0000    0.0000    0.0000 ha        1 MOL      0.110300
@<TRIPOS>BOND
     1    1    2 1   
     2    2    3 2   
     3    1    4 1   
     4    1    5 1   
     5    1    6 1   
     6    2    7 1   
     7    3    8 1   
     8    3    9 1   
@<TRIPOS>SUBSTRUCTURE
     1 MOL         1 TEMP              0 ****  ****    0 ROOT
