@<TRIPOS>MOLECULE
glycerol
   14    13     1     0     0
SMALL
No Charge or Current Charge


@<TRIPOS>ATOM
      1 C1          0.9860    0.2570   -2.5350 c3        1 MOL      0.113400
      2 C2          1.1440    1.2330   -1.3740 c3        1 MOL      0.139800
      3 C3          0.9520    0.5380   -0.0330 c3        1 MOL      0.113400
      4 O1          1.1110    1.4950    1.0100 oh        1 MOL     -0.596200
      5 O2          2.4670    1.7730   -1.4060 oh        1 MOL     -0.590400
      6 O3          1.1710    0.9410   -3.7700 oh        1 MOL     -0.596200
      7 H1         -0.0100   -0.1980   -2.5460 h1        1 MOL      0.032100
      8 H2          1.7370   -0.5370   -2.4870 h1        1 MOL      0.032100
      9 H3          0.4550    2.0800   -1.4720 h1        1 MOL      0.063200
     10 H4          1.6990   -0.2490    0.1170 h1        1 MOL      0.032100
     11 H5         -0.0520    0.1110    0.0500 h1        1 MOL      0.032100
     12 H6          0.9830    1.0190    1.8450 ho        1 MOL      0.404800
     13 H7          2.5570    2.2220   -2.2600 ho        1 MOL      0.415100
     14 H8          1.0610    0.2810   -4.4720 ho        1 MOL      0.404800
@<TRIPOS>BOND
     1    1    2 1   
     2    2    3 1   
     3    3    4 1   
     4    2    5 1   
     5    1    6 1   
     6    1    7 1   
     7    1    8 1   
     8    2    9 1   
     9    3   10 1   
    10    3   11 1   
    11    4   12 1   
    12    5   13 1   
    13    6   14 1   
@<TRIPOS>SUBSTRUCTURE
     1 MOL         1 TEMP              0 ****  ****    0 ROOT
