@<TRIPOS>MOLECULE
2-hydroxybenzaldehyde
   15    15     1     0     0
SMALL
No Charge or Current Charge


@<TRIPOS>ATOM
      1 C1          1.8850   -1.0360   -0.1120 ca        1 MOL     -0.180500
      2 C2          2.9210   -1.6310    0.6080 ca        1 MOL     -0.060600
      3 C3          2.8780   -1.6520    2.0020 ca        1 MOL     -0.232000
      4 C4          1.8000   -1.0790    2.6760 ca        1 MOL      0.170100
      5 C5          0.7640   -0.4840    1.9550 ca        1 MOL     -0.224800
      6 C6          0.8070   -0.4630    0.5610 ca        1 MOL     -0.040600
      7 C7         -0.3710    0.1200    2.6380 c         1 MOL      0.585400
      8 O1         -1.3080    0.6560    2.0410 o         1 MOL     -0.539000
      9 O2          1.7760   -1.1090    4.0380 oh        1 MOL     -0.499200
     10 H1          1.9190   -1.0200   -1.1980 ha        1 MOL      0.141300
     11 H2          3.7610   -2.0770    0.0840 ha        1 MOL      0.136500
     12 H3          3.6890   -2.1170    2.5570 ha        1 MOL      0.138300
     13 H4          0.0050   -0.0030   -0.0110 ha        1 MOL      0.158800
     14 H5         -0.3740    0.0870    3.7490 h4        1 MOL      0.018400
     15 H6          2.5680   -1.5570    4.3760 ho        1 MOL      0.427700
@<TRIPOS>BOND
     1    1    6 ar  
     2    1    2 ar  
     3    2    3 ar  
     4    3    4 ar  
     5    4    5 ar  
     6    5    6 ar  
     7    5    7 1   
     8    7    8 2   
     9    4    9 1   
    10    1   10 1   
    11    2   11 1   
    12    3   12 1   
    13    6   13 1   
    14    7   14 1   
    15    9   15 1   
@<TRIPOS>SUBSTRUCTURE
     1 MOL         1 TEMP              0 ****  ****    0 ROOT
