@<TRIPOS>MOLECULE
hexan-2-one
   19    18     1     0     0
SMALL
No Charge or Current Charge


@<TRIPOS>ATOM
      1 C1          5.2320   -3.7730    0.9380 c3        1 MOL     -0.091600
      2 C2          4.1010   -2.9950    0.2860 c3        1 MOL     -0.079400
      3 C3          3.2450   -2.2730    1.3260 c3        1 MOL     -0.075200
      4 C4          2.1100   -1.4930    0.6670 c3        1 MOL     -0.179100
      5 C5          1.2350   -0.7590    1.6730 c         1 MOL      0.562200
      6 O1          1.4610   -0.8200    2.8870 o         1 MOL     -0.532400
      7 C6          0.0610    0.0540    1.0940 c3        1 MOL     -0.204200
      8 H1          5.8400   -4.2870    0.1860 hc        1 MOL      0.034800
      9 H2          5.8850   -3.0950    1.4970 hc        1 MOL      0.034800
     10 H3          4.8430   -4.5210    1.6360 hc        1 MOL      0.034800
     11 H4          3.4780   -3.6850   -0.2950 hc        1 MOL      0.035800
     12 H5          4.5230   -2.2680   -0.4180 hc        1 MOL      0.035800
     13 H6          3.8730   -1.5890    1.9100 hc        1 MOL      0.054300
     14 H7          2.8300   -3.0020    2.0330 hc        1 MOL      0.054300
     15 H8          2.5210   -0.7470   -0.0220 hc        1 MOL      0.063200
     16 H9          1.4670   -2.1760    0.1020 hc        1 MOL      0.063200
     17 H10        -0.8500   -0.5530    1.0150 hc        1 MOL      0.062900
     18 H11        -0.1960    0.9300    1.7020 hc        1 MOL      0.062900
     19 H12         0.2850    0.4250    0.0860 hc        1 MOL      0.062900
@<TRIPOS>BOND
     1    1    2 1   
     2    2    3 1   
     3    3    4 1   
     4    4    5 1   
     5    5    6 2   
     6    5    7 1   
     7    1    8 1   
     8    1    9 1   
     9    1   10 1   
    10    2   11 1   
    11    2   12 1   
    12    3   13 1   
    13    3   14 1   
    14    4   15 1   
    15    4   16 1   
    16    7   17 1   
    17    7   18 1   
    18    7   19 1   
@<TRIPOS>SUBSTRUCTURE
     1 MOL         1 TEMP              0 ****  ****    0 ROOT
