@<TRIPOS>MOLECULE
2-(2,3-dimethylanilino)benzoic
   33    34     1     0     0
SMALL
No Charge or Current Charge


@<TRIPOS>ATOM
      1 C1          1.9570   -1.0260   -1.6040 c3        1 MOL     -0.057100
      2 C2          1.8850   -1.0360   -0.1120 ca        1 MOL     -0.065100
      3 C3          2.9210   -1.6310    0.6080 ca        1 MOL     -0.131500
      4 C4          2.8780   -1.6520    2.0020 ca        1 MOL     -0.120700
      5 C5          1.8000   -1.0790    2.6760 ca        1 MOL     -0.141800
      6 C6          0.7640   -0.4840    1.9550 ca        1 MOL      0.136300
      7 C7          0.8070   -0.4630    0.5610 ca        1 MOL     -0.080400
      8 C8         -0.3030    0.1740   -0.2160 c3        1 MOL     -0.060700
      9 N1         -0.3200    0.0900    2.6560 nh        1 MOL     -0.668100
     10 C9         -0.9210   -0.2110    3.8920 ca        1 MOL      0.260600
     11 C10        -0.9090   -1.5290    4.3490 ca        1 MOL     -0.215100
     12 C11        -1.4990   -1.8490    5.5710 ca        1 MOL     -0.056700
     13 C12        -2.1020   -0.8510    6.3370 ca        1 MOL     -0.199700
     14 C13        -2.1140    0.4670    5.8800 ca        1 MOL     -0.030200
     15 C14        -1.5230    0.7870    4.6570 ca        1 MOL     -0.222500
     16 C15        -1.5530    2.1730    4.2080 c         1 MOL      0.659600
     17 O1         -0.7000    2.7110    3.4980 o         1 MOL     -0.571300
     18 O2         -2.6490    2.8400    4.6600 oh        1 MOL     -0.600900
     19 H1          2.4710   -0.1240   -1.9480 hc        1 MOL      0.046200
     20 H2          2.4950   -1.9040   -1.9760 hc        1 MOL      0.046200
     21 H3          0.9540   -1.0510   -2.0440 hc        1 MOL      0.046200
     22 H4          3.7660   -2.0800    0.0930 ha        1 MOL      0.134400
     23 H5          3.6860   -2.1150    2.5620 ha        1 MOL      0.135100
     24 H6          1.7770   -1.1020    3.7620 ha        1 MOL      0.139700
     25 H7         -0.0850    1.2340   -0.3830 hc        1 MOL      0.050400
     26 H8         -0.4340   -0.3160   -1.1880 hc        1 MOL      0.050400
     27 H9         -1.2560    0.0890    0.3180 hc        1 MOL      0.050400
     28 H10        -0.7470    0.8720    2.1700 hn        1 MOL      0.460600
     29 H11        -0.4420   -2.3160    3.7610 ha        1 MOL      0.147300
     30 H12        -1.4890   -2.8750    5.9280 ha        1 MOL      0.133100
     31 H13        -2.5610   -1.0990    7.2890 ha        1 MOL      0.139400
     32 H14        -2.5860    1.2360    6.4860 ha        1 MOL      0.144700
     33 H15        -2.6790    3.7740    4.3620 ho        1 MOL      0.441400
@<TRIPOS>BOND
     1    1    2 1   
     2    2    7 ar  
     3    2    3 ar  
     4    3    4 ar  
     5    4    5 ar  
     6    5    6 ar  
     7    6    7 ar  
     8    7    8 1   
     9    6    9 1   
    10    9   10 1   
    11   10   15 ar  
    12   10   11 ar  
    13   11   12 ar  
    14   12   13 ar  
    15   13   14 ar  
    16   14   15 ar  
    17   15   16 1   
    18   16   17 2   
    19   16   18 1   
    20    1   19 1   
    21    1   20 1   
    22    1   21 1   
    23    3   22 1   
    24    4   23 1   
    25    5   24 1   
    26    8   25 1   
    27    8   26 1   
    28    8   27 1   
    29    9   28 1   
    30   11   29 1   
    31   12   30 1   
    32   13   31 1   
    33   14   32 1   
    34   18   33 1   
@<TRIPOS>SUBSTRUCTURE
     1 MOL         1 TEMP              0 ****  ****    0 ROOT
