@<TRIPOS>MOLECULE
2-methoxyethanol
   13    12     1     0     0
SMALL
No Charge or Current Charge


@<TRIPOS>ATOM
      1 C1          0.3040    0.8200    2.4300 c3        1 MOL      0.114800
      2 O1         -0.8530    0.2360    1.8470 os        1 MOL     -0.415200
      3 C2         -0.8940    0.4510    0.4420 c3        1 MOL      0.117700
      4 C3         -2.1460   -0.1940   -0.1210 c3        1 MOL      0.130800
      5 O2         -2.1150   -1.5890    0.1550 oh        1 MOL     -0.596100
      6 H1          0.3020    0.6360    3.5080 h1        1 MOL      0.032500
      7 H2          0.3090    1.8950    2.2340 h1        1 MOL      0.032500
      8 H3          1.1940    0.3660    1.9870 h1        1 MOL      0.032500
      9 H4         -0.8900    1.5300    0.2610 h1        1 MOL      0.037900
     10 H5          0.0000    0.0000    0.0000 h1        1 MOL      0.037900
     11 H6         -2.2040   -0.0620   -1.2060 h1        1 MOL      0.036200
     12 H7         -3.0380    0.2290    0.3500 h1        1 MOL      0.036200
     13 H8         -2.9280   -1.9650   -0.2180 ho        1 MOL      0.402300
@<TRIPOS>BOND
     1    1    2 1   
     2    2    3 1   
     3    3    4 1   
     4    4    5 1   
     5    1    6 1   
     6    1    7 1   
     7    1    8 1   
     8    3    9 1   
     9    3   10 1   
    10    4   11 1   
    11    4   12 1   
    12    5   13 1   
@<TRIPOS>SUBSTRUCTURE
     1 MOL         1 TEMP              0 ****  ****    0 ROOT
