@<TRIPOS>MOLECULE
(2S,3R,4S,5R)-tetrahydropyran-2,3,4,5-tetrol
   20    20     1     0     0
SMALL
No Charge or Current Charge


@<TRIPOS>ATOM
      1 C1          0.3520   -0.7180   -0.7490 c3        1 MOL      0.128800
      2 C2          0.3580   -2.1200   -0.1520 c3        1 MOL      0.121200
      3 H1          0.9180   -2.1170    0.7900 h1        1 MOL      0.059400
      4 C3          0.9790   -3.1310   -1.1190 c3        1 MOL      0.109600
      5 H2          0.2980   -3.3630   -1.9430 h1        1 MOL      0.079000
      6 C4          2.3190   -2.6090   -1.6400 c3        1 MOL      0.095900
      7 H3          3.0490   -2.6380   -0.8220 h1        1 MOL      0.061800
      8 C5          2.2080   -1.1750   -2.1650 c3        1 MOL      0.299100
      9 H4          3.2350   -0.7980   -2.3770 h2        1 MOL      0.069000
     10 O1          1.6550   -0.3160   -1.1640 os        1 MOL     -0.439900
     11 O2          1.4910   -1.0970   -3.3960 oh        1 MOL     -0.614200
     12 O3          2.8090   -3.4530   -2.6760 oh        1 MOL     -0.590000
     13 O4          1.2210   -4.3590   -0.4300 oh        1 MOL     -0.609000
     14 O5         -0.9850   -2.4860    0.1440 oh        1 MOL     -0.596300
     15 H5          0.0010   -0.0000    0.0000 h1        1 MOL      0.071300
     16 H6         -0.3510   -0.6420   -1.5880 h1        1 MOL      0.071300
     17 H7          1.4740   -0.1610   -3.6450 ho        1 MOL      0.420900
     18 H8          3.6550   -3.0750   -2.9650 ho        1 MOL      0.413400
     19 H9          1.6120   -4.9630   -1.0790 ho        1 MOL      0.425500
     20 H10        -0.9540   -3.3790    0.5210 ho        1 MOL      0.423100
@<TRIPOS>BOND
     1    1   10 1   
     2    1    2 1   
     3    2    3 1   
     4    2    4 1   
     5    4    5 1   
     6    4    6 1   
     7    6    7 1   
     8    6    8 1   
     9    8    9 1   
    10    8   10 1   
    11    8   11 1   
    12    6   12 1   
    13    4   13 1   
    14    2   14 1   
    15    1   15 1   
    16    1   16 1   
    17   11   17 1   
    18   12   18 1   
    19   13   19 1   
    20   14   20 1   
@<TRIPOS>SUBSTRUCTURE
     1 MOL         1 TEMP              0 ****  ****    0 ROOT
