@<TRIPOS>MOLECULE
1-nitroethane
   10     9     1     0     0
SMALL
No Charge or Current Charge


@<TRIPOS>ATOM
      1 C1          0.2390    0.2400    1.0420 c3        1 MOL     -0.112400
      2 C2          1.1260   -0.8170    1.6640 c3        1 MOL     -0.073600
      3 N1          2.3770   -0.9040    0.9080 no        1 MOL      0.226100
      4 O1          3.3250   -0.1750    1.2630 o         1 MOL     -0.210300
      5 O2          2.4240   -1.6880   -0.0620 o         1 MOL     -0.210300
      6 H1         -0.7100    0.3350    1.5820 hc        1 MOL      0.064100
      7 H2          0.7250    1.2230    1.0450 hc        1 MOL      0.064100
      8 H3          0.0110   -0.0210    0.0030 hc        1 MOL      0.064100
      9 H4          0.6540   -1.8020    1.6320 h1        1 MOL      0.094100
     10 H5          1.3840   -0.5690    2.6970 h1        1 MOL      0.094100
@<TRIPOS>BOND
     1    1    2 1   
     2    2    3 1   
     3    3    4 1   
     4    3    5 1   
     5    1    6 1   
     6    1    7 1   
     7    1    8 1   
     8    2    9 1   
     9    2   10 1   
@<TRIPOS>SUBSTRUCTURE
     1 MOL         1 TEMP              0 ****  ****    0 ROOT
