@<TRIPOS>MOLECULE
1,1-dichloroethane
    8     7     1     0     0
SMALL
No Charge or Current Charge


@<TRIPOS>ATOM
      1 C1         -0.4710    0.6840    0.7150 c3        1 MOL     -0.112200
      2 C2         -0.0880    0.3250    2.1390 c3        1 MOL      0.156100
      3 Cl1        -0.8870    1.4230    3.2880 cl        1 MOL     -0.162700
      4 Cl2         1.6770    0.4130    2.3440 cl        1 MOL     -0.162700
      5 H1          0.0090    0.0210   -0.0150 hc        1 MOL      0.062500
      6 H2         -1.5550    0.6110    0.5720 hc        1 MOL      0.062500
      7 H3         -0.1780    1.7130    0.4790 hc        1 MOL      0.062500
      8 H4         -0.4020   -0.6950    2.3770 h2        1 MOL      0.094100
@<TRIPOS>BOND
     1    1    2 1   
     2    2    3 1   
     3    2    4 1   
     4    1    5 1   
     5    1    6 1   
     6    1    7 1   
     7    2    8 1   
@<TRIPOS>SUBSTRUCTURE
     1 MOL         1 TEMP              0 ****  ****    0 ROOT
