@<TRIPOS>MOLECULE
1-(2-hydroxyethylamino)anthracene-9,10-dione
   33    35     1     0     0
SMALL
No Charge or Current Charge


@<TRIPOS>ATOM
      1 C1          1.2900   -1.6870   -0.3520 ca        1 MOL     -0.119700
      2 C2          0.9560   -0.4630    0.2260 ca        1 MOL     -0.117500
      3 C3          1.8480    0.1680    1.0930 ca        1 MOL     -0.087500
      4 C4          3.0810   -0.4280    1.3840 ca        1 MOL     -0.127600
      5 C5          3.4160   -1.6540    0.8060 ca        1 MOL     -0.128100
      6 C6          2.5180   -2.2840   -0.0640 ca        1 MOL     -0.085800
      7 C7          4.7130   -2.2940    1.1040 c         1 MOL      0.582900
      8 O1          5.0080   -3.3690    0.5970 o         1 MOL     -0.524200
      9 C8          5.6520   -1.6180    2.0240 ca        1 MOL     -0.077200
     10 C9          6.8850   -2.2140    2.3150 ca        1 MOL     -0.147900
     11 C10         7.7770   -1.5830    3.1820 ca        1 MOL     -0.066500
     12 C11         7.4420   -0.3590    3.7590 ca        1 MOL     -0.205800
     13 C12         6.2150    0.2380    3.4720 ca        1 MOL      0.257900
     14 C13         5.3170   -0.3920    2.6020 ca        1 MOL     -0.224100
     15 C14         4.0190    0.2480    2.3040 c         1 MOL      0.602700
     16 O2          3.6910    1.3220    2.7910 o         1 MOL     -0.574700
     17 N1          5.9470    1.4790    4.0950 nh        1 MOL     -0.777500
     18 C15         6.8690    2.1140    4.9820 c3        1 MOL      0.179600
     19 C16         6.3150    3.4460    5.5090 c3        1 MOL      0.098200
     20 O3          5.1040    3.1930    6.2100 oh        1 MOL     -0.590100
     21 H1          0.5940   -2.1760   -1.0260 ha        1 MOL      0.139700
     22 H2          0.0000    0.0000   -0.0000 ha        1 MOL      0.141100
     23 H3          1.5620    1.1220    1.5280 ha        1 MOL      0.162000
     24 H4          2.7550   -3.2380   -0.5270 ha        1 MOL      0.159000
     25 H5          7.1680   -3.1670    1.8780 ha        1 MOL      0.161000
     26 H6          8.7330   -2.0450    3.4070 ha        1 MOL      0.140200
     27 H7          8.1490    0.1190    4.4330 ha        1 MOL      0.136500
     28 H8          5.0650    1.9050    3.8890 hn        1 MOL      0.473200
     29 H9          7.8400    2.3030    4.4730 h1        1 MOL      0.056200
     30 H10         7.0890    1.4620    5.8550 h1        1 MOL      0.056200
     31 H11         6.0940    4.1460    4.6960 h1        1 MOL      0.055500
     32 H12         7.0290    3.9110    6.1960 h1        1 MOL      0.055500
     33 H13         4.7810    4.0510    6.5290 ho        1 MOL      0.396500
@<TRIPOS>BOND
     1    1    6 ar  
     2    1    2 ar  
     3    2    3 ar  
     4    3    4 ar  
     5    4   15 1   
     6    4    5 ar  
     7    5    6 ar  
     8    5    7 1   
     9    7    8 2   
    10    7    9 1   
    11    9   14 ar  
    12    9   10 ar  
    13   10   11 ar  
    14   11   12 ar  
    15   12   13 ar  
    16   13   14 ar  
    17   14   15 1   
    18   15   16 2   
    19   13   17 1   
    20   17   18 1   
    21   18   19 1   
    22   19   20 1   
    23    1   21 1   
    24    2   22 1   
    25    3   23 1   
    26    6   24 1   
    27   10   25 1   
    28   11   26 1   
    29   12   27 1   
    30   17   28 1   
    31   18   29 1   
    32   18   30 1   
    33   19   31 1   
    34   19   32 1   
    35   20   33 1   
@<TRIPOS>SUBSTRUCTURE
     1 MOL         1 TEMP              0 ****  ****    0 ROOT
