@<TRIPOS>MOLECULE
1-pyrrolidin-1-ylethanone
   19    19     1     0     0
SMALL
No Charge or Current Charge


@<TRIPOS>ATOM
      1 C1          0.1450   -2.7770    4.2010 c3        1 MOL     -0.170600
      2 C2         -0.8580   -2.3750    3.1480 c         1 MOL      0.670500
      3 O1         -2.0620   -2.3650    3.4060 o         1 MOL     -0.609200
      4 N1         -0.3270   -2.0400    1.9170 n         1 MOL     -0.493000
      5 C3          1.0860   -2.0290    1.5490 c3        1 MOL      0.097800
      6 C4          1.0830   -1.8650    0.0350 c3        1 MOL     -0.092500
      7 C5         -0.1850   -1.0590   -0.2180 c3        1 MOL     -0.092500
      8 C6         -1.1610   -1.6370    0.7940 c3        1 MOL      0.097800
      9 H1          0.3240   -3.8550    4.1630 hc        1 MOL      0.064000
     10 H2         -0.2250   -2.5170    5.1970 hc        1 MOL      0.064000
     11 H3          1.0930   -2.2570    4.0400 hc        1 MOL      0.064000
     12 H4          1.5540   -1.1700    2.0430 h1        1 MOL      0.046300
     13 H5          1.5860   -2.9460    1.8730 h1        1 MOL      0.046300
     14 H6          1.9860   -1.3730   -0.3370 hc        1 MOL      0.053600
     15 H7          1.0000   -2.8460   -0.4480 hc        1 MOL      0.053600
     16 H8         -0.0000    0.0000   -0.0000 hc        1 MOL      0.053600
     17 H9         -0.5460   -1.1400   -1.2470 hc        1 MOL      0.053600
     18 H10        -1.9250   -0.9220    1.1130 h1        1 MOL      0.046300
     19 H11        -1.6560   -2.5350    0.4080 h1        1 MOL      0.046300
@<TRIPOS>BOND
     1    1    2 1   
     2    2    3 2   
     3    2    4 1   
     4    4    8 1   
     5    4    5 1   
     6    5    6 1   
     7    6    7 1   
     8    7    8 1   
     9    1    9 1   
    10    1   10 1   
    11    1   11 1   
    12    5   12 1   
    13    5   13 1   
    14    6   14 1   
    15    6   15 1   
    16    7   16 1   
    17    7   17 1   
    18    8   18 1   
    19    8   19 1   
@<TRIPOS>SUBSTRUCTURE
     1 MOL         1 TEMP              0 ****  ****    0 ROOT
