@<TRIPOS>MOLECULE
oct-1-ene
   24    23     1     0     0
SMALL
No Charge or Current Charge


@<TRIPOS>ATOM
      1 C1          1.5040    3.3310    0.9520 c3        1 MOL     -0.092400
      2 C2          1.5690    1.8420    1.2540 c3        1 MOL     -0.081000
      3 C3          0.3830    1.0940    0.6430 c3        1 MOL     -0.077300
      4 C4          0.4550   -0.4030    0.9520 c3        1 MOL     -0.076500
      5 C5         -0.7120   -1.2030    0.3620 c3        1 MOL     -0.072800
      6 C6         -0.6390   -2.7000    0.6710 c3        1 MOL     -0.054400
      7 C7         -1.8020   -3.4340    0.0710 c2        1 MOL     -0.159500
      8 C8         -2.6920   -4.1350    0.7830 c2        1 MOL     -0.226200
      9 H1          2.3550    3.8580    1.3930 hc        1 MOL      0.032000
     10 H2          1.5080    3.5120   -0.1280 hc        1 MOL      0.032000
     11 H3          0.5870    3.7620    1.3650 hc        1 MOL      0.032000
     12 H4          2.5080    1.4360    0.8610 hc        1 MOL      0.038200
     13 H5          1.5810    1.6970    2.3410 hc        1 MOL      0.038200
     14 H6          0.3790    1.2550   -0.4410 hc        1 MOL      0.039400
     15 H7         -0.5540    1.5070    1.0370 hc        1 MOL      0.039400
     16 H8          1.4040   -0.8120    0.5850 hc        1 MOL      0.040400
     17 H9          0.4500   -0.5450    2.0400 hc        1 MOL      0.040400
     18 H10        -0.7500   -1.0450   -0.7240 hc        1 MOL      0.038800
     19 H11        -1.6450   -0.7940    0.7700 hc        1 MOL      0.038800
     20 H12         0.2800   -3.1300    0.2570 hc        1 MOL      0.046200
     21 H13        -0.6030   -2.8510    1.7570 hc        1 MOL      0.046200
     22 H14        -1.9140   -3.3960   -1.0090 ha        1 MOL      0.117400
     23 H15        -3.5190   -4.6510    0.3090 ha        1 MOL      0.110300
     24 H16        -2.6020   -4.2010    1.8620 ha        1 MOL      0.110300
@<TRIPOS>BOND
     1    1    2 1   
     2    2    3 1   
     3    3    4 1   
     4    4    5 1   
     5    5    6 1   
     6    6    7 1   
     7    7    8 2   
     8    1    9 1   
     9    1   10 1   
    10    1   11 1   
    11    2   12 1   
    12    2   13 1   
    13    3   14 1   
    14    3   15 1   
    15    4   16 1   
    16    4   17 1   
    17    5   18 1   
    18    5   19 1   
    19    6   20 1   
    20    6   21 1   
    21    7   22 1   
    22    8   23 1   
    23    8   24 1   
@<TRIPOS>SUBSTRUCTURE
     1 MOL         1 TEMP              0 ****  ****    0 ROOT
