@<TRIPOS>MOLECULE
2-methoxy-4-propyl-phenol
   26    26     1     0     0
SMALL
No Charge or Current Charge


@<TRIPOS>ATOM
      1 C1          1.3090   -2.2310   -3.7220 c3        1 MOL     -0.096300
      2 C2          1.2610   -2.2530   -2.2030 c3        1 MOL     -0.075700
      3 C3          1.9310   -1.0160   -1.6030 c3        1 MOL     -0.032700
      4 C4          1.8850   -1.0360   -0.1120 ca        1 MOL     -0.101100
      5 C5          2.9210   -1.6310    0.6080 ca        1 MOL     -0.095100
      6 C6          2.8780   -1.6520    2.0020 ca        1 MOL     -0.206800
      7 C7          1.8000   -1.0790    2.6760 ca        1 MOL      0.110000
      8 C8          0.7640   -0.4840    1.9550 ca        1 MOL      0.064700
      9 C9          0.8070   -0.4630    0.5610 ca        1 MOL     -0.108600
     10 O1         -0.2940    0.0800    2.6010 os        1 MOL     -0.328600
     11 C10        -1.3110    0.6660    1.7910 c3        1 MOL      0.117400
     12 O2          1.7690   -1.1060    4.0370 oh        1 MOL     -0.482800
     13 H1          0.8270   -3.1190   -4.1430 hc        1 MOL      0.035100
     14 H2          0.8020   -1.3440   -4.1170 hc        1 MOL      0.035100
     15 H3          2.3470   -2.2110   -4.0680 hc        1 MOL      0.035100
     16 H4          1.7560   -3.1630   -1.8410 hc        1 MOL      0.042100
     17 H5          0.2150   -2.3110   -1.8770 hc        1 MOL      0.042100
     18 H6          1.4390   -0.1080   -1.9760 hc        1 MOL      0.046600
     19 H7          2.9740   -0.9570   -1.9410 hc        1 MOL      0.046600
     20 H8          3.7650   -2.0810    0.0920 ha        1 MOL      0.136300
     21 H9          3.6890   -2.1160    2.5580 ha        1 MOL      0.134200
     22 H10        -0.0020    0.0000    0.0020 ha        1 MOL      0.146500
     23 H11        -2.0870    1.0750    2.4370 h1        1 MOL      0.039700
     24 H12        -1.7230   -0.0960    1.1310 h1        1 MOL      0.039700
     25 H13        -0.8640    1.4640    1.2000 h1        1 MOL      0.039700
     26 H14         0.9650   -0.6730    4.3630 ho        1 MOL      0.417000
@<TRIPOS>BOND
     1    1    2 1   
     2    2    3 1   
     3    3    4 1   
     4    4    9 ar  
     5    4    5 ar  
     6    5    6 ar  
     7    6    7 ar  
     8    7    8 ar  
     9    8    9 ar  
    10    8   10 1   
    11   10   11 1   
    12    7   12 1   
    13    1   13 1   
    14    1   14 1   
    15    1   15 1   
    16    2   16 1   
    17    2   17 1   
    18    3   18 1   
    19    3   19 1   
    20    5   20 1   
    21    6   21 1   
    22    9   22 1   
    23   11   23 1   
    24   11   24 1   
    25   11   25 1   
    26   12   26 1   
@<TRIPOS>SUBSTRUCTURE
     1 MOL         1 TEMP              0 ****  ****    0 ROOT
