@<TRIPOS>MOLECULE
ammonia
    4     3     1     0     0
SMALL
No Charge or Current Charge


@<TRIPOS>ATOM
      1 N1         -0.1930   -0.0280   -0.2220 n3        1 MOL     -1.010000
      2 H1         -0.6350    0.2630    0.6490 hn        1 MOL      0.336700
      3 H2          0.5330    0.6620   -0.4130 hn        1 MOL      0.336700
      4 H3          0.2950   -0.8980   -0.0130 hn        1 MOL      0.336700
@<TRIPOS>BOND
     1    1    2 1   
     2    1    3 1   
     3    1    4 1   
@<TRIPOS>SUBSTRUCTURE
     1 MOL         1 TEMP              0 ****  ****    0 ROOT
