@<TRIPOS>MOLECULE
1,2,3,5-tetrachlorobenzene
   12    12     1     0     0
SMALL
No Charge or Current Charge


@<TRIPOS>ATOM
      1 C1          1.8850   -1.0360   -0.1120 ca        1 MOL     -0.116300
      2 C2          2.9210   -1.6310    0.6080 ca        1 MOL      0.029900
      3 C3          2.8780   -1.6520    2.0020 ca        1 MOL     -0.116300
      4 C4          1.8000   -1.0790    2.6760 ca        1 MOL      0.030500
      5 C5          0.7640   -0.4840    1.9550 ca        1 MOL      0.014300
      6 C6          0.8070   -0.4630    0.5610 ca        1 MOL      0.030500
      7 Cl1        -0.4410    0.2560   -0.4000 cl        1 MOL     -0.052500
      8 Cl2        -0.5810    0.2290    2.7940 cl        1 MOL     -0.037300
      9 Cl3         1.8170   -1.1430    4.4050 cl        1 MOL     -0.052500
     10 Cl4         4.2520   -2.3390   -0.2230 cl        1 MOL     -0.066900
     11 H1          1.9220   -1.0210   -1.2000 ha        1 MOL      0.168400
     12 H2          3.6880   -2.1170    2.5610 ha        1 MOL      0.168400
@<TRIPOS>BOND
     1    1    6 ar  
     2    1    2 ar  
     3    2    3 ar  
     4    3    4 ar  
     5    4    5 ar  
     6    5    6 ar  
     7    6    7 1   
     8    5    8 1   
     9    4    9 1   
    10    2   10 1   
    11    1   11 1   
    12    3   12 1   
@<TRIPOS>SUBSTRUCTURE
     1 MOL         1 TEMP              0 ****  ****    0 ROOT
