@<TRIPOS>MOLECULE
4-methylaniline
   17    17     1     0     0
SMALL
No Charge or Current Charge


@<TRIPOS>ATOM
      1 C1          1.9310   -1.0140   -1.6030 c3        1 MOL     -0.045600
      2 C2          1.8850   -1.0360   -0.1120 ca        1 MOL     -0.121900
      3 C3          2.9210   -1.6310    0.6080 ca        1 MOL     -0.092000
      4 C4          2.8780   -1.6520    2.0020 ca        1 MOL     -0.188800
      5 C5          1.8000   -1.0790    2.6760 ca        1 MOL      0.136300
      6 C6          0.7640   -0.4840    1.9550 ca        1 MOL     -0.188800
      7 C7          0.8070   -0.4630    0.5610 ca        1 MOL     -0.092000
      8 N1          1.7570   -1.0990    4.0850 nh        1 MOL     -0.821700
      9 H1          2.4380   -0.1080   -1.9490 hc        1 MOL      0.039800
     10 H2          2.4630   -1.8880   -1.9910 hc        1 MOL      0.039800
     11 H3          0.9200   -1.0370   -2.0250 hc        1 MOL      0.039800
     12 H4          3.7650   -2.0790    0.0920 ha        1 MOL      0.129100
     13 H5          3.6910   -2.1180    2.5540 ha        1 MOL      0.129700
     14 H6         -0.0810   -0.0340    2.4690 ha        1 MOL      0.129700
     15 H7         -0.0050    0.0020    0.0080 ha        1 MOL      0.129100
     16 H8          2.4820   -1.5690    4.5890 hn        1 MOL      0.388600
     17 H9          0.9560   -0.7270    4.5540 hn        1 MOL      0.388600
@<TRIPOS>BOND
     1    1    2 1   
     2    2    7 ar  
     3    2    3 ar  
     4    3    4 ar  
     5    4    5 ar  
     6    5    6 ar  
     7    6    7 ar  
     8    5    8 1   
     9    1    9 1   
    10    1   10 1   
    11    1   11 1   
    12    3   12 1   
    13    4   13 1   
    14    6   14 1   
    15    7   15 1   
    16    8   16 1   
    17    8   17 1   
@<TRIPOS>SUBSTRUCTURE
     1 MOL         1 TEMP              0 ****  ****    0 ROOT
