@<TRIPOS>MOLECULE
2-isobutylpyrazine
   22    22     1     0     0
SMALL
No Charge or Current Charge


@<TRIPOS>ATOM
      1 C1          0.1920   -0.1010    0.9400 c3        1 MOL     -0.093500
      2 C2         -0.6430    0.6470    1.9820 c3        1 MOL     -0.064600
      3 C3         -0.0720    0.3940    3.3790 c3        1 MOL     -0.093500
      4 C4         -0.6900    2.1630    1.7040 c3        1 MOL     -0.125500
      5 C5         -1.2870    2.5200    0.3650 ca        1 MOL      0.304400
      6 C6         -2.6410    2.7420    0.2400 ca        1 MOL      0.279900
      7 N1         -3.2050    3.0610   -0.9420 nb        1 MOL     -0.629200
      8 C7         -2.3680    3.1500   -1.9940 ca        1 MOL      0.273500
      9 C8         -1.0140    2.9290   -1.8690 ca        1 MOL      0.284900
     10 N2         -0.4490    2.6090   -0.6880 nb        1 MOL     -0.634700
     11 H1         -0.1950    0.0620   -0.0720 hc        1 MOL      0.036200
     12 H2          0.1970   -1.1790    1.1330 hc        1 MOL      0.036200
     13 H3          1.2330    0.2380    0.9620 hc        1 MOL      0.036200
     14 H4         -1.6620    0.2390    1.9590 hc        1 MOL      0.060600
     15 H5         -0.6560    0.9220    4.1400 hc        1 MOL      0.036200
     16 H6         -0.0810   -0.6730    3.6250 hc        1 MOL      0.036200
     17 H7          0.9610    0.7500    3.4470 hc        1 MOL      0.036200
     18 H8          0.3180    2.5890    1.7890 hc        1 MOL      0.060100
     19 H9         -1.2870    2.6640    2.4780 hc        1 MOL      0.060100
     20 H10        -3.3210    2.6710    1.0800 h4        1 MOL      0.033800
     21 H11        -2.8220    3.4060   -2.9430 h4        1 MOL      0.033600
     22 H12        -0.3410    3.0010   -2.7140 h4        1 MOL      0.032800
@<TRIPOS>BOND
     1    1    2 1   
     2    2    3 1   
     3    2    4 1   
     4    4    5 1   
     5    5   10 ar  
     6    5    6 ar  
     7    6    7 ar  
     8    7    8 ar  
     9    8    9 ar  
    10    9   10 ar  
    11    1   11 1   
    12    1   12 1   
    13    1   13 1   
    14    2   14 1   
    15    3   15 1   
    16    3   16 1   
    17    3   17 1   
    18    4   18 1   
    19    4   19 1   
    20    6   20 1   
    21    8   21 1   
    22    9   22 1   
@<TRIPOS>SUBSTRUCTURE
     1 MOL         1 TEMP              0 ****  ****    0 ROOT
