@<TRIPOS>MOLECULE
thiophene
    9     9     1     0     0
SMALL
No Charge or Current Charge


@<TRIPOS>ATOM
      1 C1         -0.4680   -0.0880   -0.9720 cc        1 MOL     -0.156900
      2 C2         -0.2530    0.8090   -2.0580 cc        1 MOL     -0.156800
      3 C3         -0.9780    0.4540   -3.1740 cd        1 MOL     -0.169700
      4 S1         -1.9150   -0.9560   -2.9100 ss        1 MOL      0.009400
      5 C4         -1.3500   -1.0950   -1.2990 cd        1 MOL     -0.169700
      6 H1         -0.0000   -0.0000    0.0000 ha        1 MOL      0.152300
      7 H2          0.4010    1.6700   -2.0220 ha        1 MOL      0.152300
      8 H3         -1.0030    0.9550   -4.1310 h4        1 MOL      0.169500
      9 H4         -1.6900   -1.9050   -0.6690 h4        1 MOL      0.169500
@<TRIPOS>BOND
     1    1    5 2   
     2    1    2 1   
     3    2    3 2   
     4    3    4 1   
     5    4    5 1   
     6    1    6 1   
     7    2    7 1   
     8    3    8 1   
     9    5    9 1   
@<TRIPOS>SUBSTRUCTURE
     1 MOL         1 TEMP              0 ****  ****    0 ROOT
