@<TRIPOS>MOLECULE
2,6-dimethylphenol
   19    19     1     0     0
SMALL
No Charge or Current Charge


@<TRIPOS>ATOM
      1 C1          1.9500   -1.0220   -1.6040 c3        1 MOL     -0.049400
      2 C2          1.8850   -1.0360   -0.1120 ca        1 MOL     -0.125100
      3 C3          2.9210   -1.6310    0.6080 ca        1 MOL     -0.103100
      4 C4          2.8780   -1.6520    2.0020 ca        1 MOL     -0.156600
      5 C5          1.8000   -1.0790    2.6760 ca        1 MOL     -0.103100
      6 C6          0.7640   -0.4840    1.9550 ca        1 MOL     -0.125100
      7 C7          0.8070   -0.4630    0.5610 ca        1 MOL      0.124400
      8 O1         -0.2060    0.1190   -0.1430 oh        1 MOL     -0.501500
      9 C8         -0.3830    0.1240    2.6940 c3        1 MOL     -0.049400
     10 H1          2.4640   -0.1190   -1.9480 hc        1 MOL      0.045300
     11 H2          2.4870   -1.8990   -1.9800 hc        1 MOL      0.045300
     12 H3          0.9460   -1.0460   -2.0390 hc        1 MOL      0.045300
     13 H4          3.7660   -2.0780    0.0920 ha        1 MOL      0.132100
     14 H5          3.6850   -2.1150    2.5630 ha        1 MOL      0.132800
     15 H6          1.7750   -1.1010    3.7620 ha        1 MOL      0.132100
     16 H7         -0.8760    0.4700    0.4640 ho        1 MOL      0.420000
     17 H8         -0.1780    1.1790    2.9120 hc        1 MOL      0.045300
     18 H9         -1.3090    0.0610    2.1110 hc        1 MOL      0.045300
     19 H10        -0.5660   -0.3990    3.6410 hc        1 MOL      0.045300
@<TRIPOS>BOND
     1    1    2 1   
     2    2    7 ar  
     3    2    3 ar  
     4    3    4 ar  
     5    4    5 ar  
     6    5    6 ar  
     7    6    7 ar  
     8    7    8 1   
     9    6    9 1   
    10    1   10 1   
    11    1   11 1   
    12    1   12 1   
    13    3   13 1   
    14    4   14 1   
    15    5   15 1   
    16    8   16 1   
    17    9   17 1   
    18    9   18 1   
    19    9   19 1   
@<TRIPOS>SUBSTRUCTURE
     1 MOL         1 TEMP              0 ****  ****    0 ROOT
