@<TRIPOS>MOLECULE
3-nitroaniline
   16    16     1     0     0
SMALL
No Charge or Current Charge


@<TRIPOS>ATOM
      1 C1          1.8850   -1.0360   -0.1120 ca        1 MOL     -0.100800
      2 C2          2.9210   -1.6310    0.6080 ca        1 MOL     -0.156900
      3 C3          2.8780   -1.6520    2.0020 ca        1 MOL      0.141000
      4 C4          1.8000   -1.0790    2.6760 ca        1 MOL     -0.141200
      5 C5          0.7640   -0.4840    1.9550 ca        1 MOL     -0.133400
      6 C6          0.8070   -0.4630    0.5610 ca        1 MOL     -0.113400
      7 N1         -0.3340    0.1010    2.6400 no        1 MOL      0.309600
      8 O1         -1.2550    0.6300    1.9720 o         1 MOL     -0.208800
      9 O2         -0.3530    0.0730    3.8940 o         1 MOL     -0.208800
     10 N2          3.9250   -2.2540    2.7310 nh        1 MOL     -0.817600
     11 H1          1.9190   -1.0200   -1.1980 ha        1 MOL      0.146800
     12 H2          3.7570   -2.0750    0.0730 ha        1 MOL      0.141700
     13 H3          1.7680   -1.0960    3.7630 ha        1 MOL      0.170900
     14 H4          0.0050   -0.0030   -0.0120 ha        1 MOL      0.171300
     15 H5          3.9060   -2.2210    3.7300 hn        1 MOL      0.399900
     16 H6          4.7150   -2.6200    2.2380 hn        1 MOL      0.399900
@<TRIPOS>BOND
     1    1    6 ar  
     2    1    2 ar  
     3    2    3 ar  
     4    3    4 ar  
     5    4    5 ar  
     6    5    6 ar  
     7    5    7 1   
     8    7    8 1   
     9    7    9 1   
    10    3   10 1   
    11    1   11 1   
    12    2   12 1   
    13    4   13 1   
    14    6   14 1   
    15   10   15 1   
    16   10   16 1   
@<TRIPOS>SUBSTRUCTURE
     1 MOL         1 TEMP              0 ****  ****    0 ROOT
