@<TRIPOS>MOLECULE
pentan-3-ol
   18    17     1     0     0
SMALL
No Charge or Current Charge


@<TRIPOS>ATOM
      1 C1         -0.2570    0.9720    0.2430 c3        1 MOL     -0.090000
      2 C2         -0.4530    1.2390    1.7300 c3        1 MOL     -0.111700
      3 C3         -1.5320    0.3420    2.3460 c3        1 MOL      0.135800
      4 C4         -1.6990    0.6410    3.8400 c3        1 MOL     -0.111700
      5 C5         -2.7610   -0.2260    4.5030 c3        1 MOL     -0.090000
      6 O1         -1.1460   -1.0190    2.1650 oh        1 MOL     -0.595600
      7 H1          0.5190    1.6310   -0.1580 hc        1 MOL      0.037800
      8 H2          0.0520   -0.0610    0.0610 hc        1 MOL      0.037800
      9 H3         -1.1810    1.1590   -0.3130 hc        1 MOL      0.037800
     10 H4          0.5050    1.0710    2.2370 hc        1 MOL      0.041500
     11 H5         -0.7210    2.2930    1.8680 hc        1 MOL      0.041500
     12 H6         -2.4820    0.4990    1.8210 h1        1 MOL      0.076300
     13 H7         -0.7480    0.4740    4.3610 hc        1 MOL      0.041500
     14 H8         -1.9710    1.6940    3.9780 hc        1 MOL      0.041500
     15 H9         -2.8420    0.0250    5.5650 hc        1 MOL      0.037800
     16 H10        -3.7410   -0.0660    4.0410 hc        1 MOL      0.037800
     17 H11        -2.5140   -1.2890    4.4300 hc        1 MOL      0.037800
     18 H12        -0.2960   -1.1270    2.6180 ho        1 MOL      0.394500
@<TRIPOS>BOND
     1    1    2 1   
     2    2    3 1   
     3    3    4 1   
     4    4    5 1   
     5    3    6 1   
     6    1    7 1   
     7    1    8 1   
     8    1    9 1   
     9    2   10 1   
    10    2   11 1   
    11    3   12 1   
    12    4   13 1   
    13    4   14 1   
    14    5   15 1   
    15    5   16 1   
    16    5   17 1   
    17    6   18 1   
@<TRIPOS>SUBSTRUCTURE
     1 MOL         1 TEMP              0 ****  ****    0 ROOT
