@<TRIPOS>MOLECULE
hexanoic
   20    19     1     0     0
SMALL
No Charge or Current Charge


@<TRIPOS>ATOM
      1 C1          1.9050    1.9360   -0.3940 c3        1 MOL     -0.093300
      2 C2          1.7350    0.6230   -1.1430 c3        1 MOL     -0.079700
      3 C3          1.0010    0.7710   -2.4770 c3        1 MOL     -0.080100
      4 C4          0.8040   -0.5230   -3.2730 c3        1 MOL     -0.073800
      5 C5          0.0660   -0.3170   -4.5950 c3        1 MOL     -0.173200
      6 C6         -0.1090   -1.6150   -5.3500 c         1 MOL      0.622200
      7 O1          0.2800   -2.7120   -4.9770 o         1 MOL     -0.483900
      8 O2         -0.7600   -1.4190   -6.5270 oh        1 MOL     -0.585300
      9 H1          2.4350    1.7650    0.5490 hc        1 MOL      0.034000
     10 H2          2.4850    2.6530   -0.9830 hc        1 MOL      0.034000
     11 H3          0.9380    2.3870   -0.1510 hc        1 MOL      0.034000
     12 H4          2.7290    0.2060   -1.3420 hc        1 MOL      0.042900
     13 H5          1.2200   -0.1000   -0.5020 hc        1 MOL      0.042900
     14 H6          0.0150    1.2170   -2.2920 hc        1 MOL      0.038700
     15 H7          1.5510    1.4890   -3.0980 hc        1 MOL      0.038700
     16 H8          1.7710   -1.0050   -3.4560 hc        1 MOL      0.061400
     17 H9          0.2340   -1.2220   -2.6470 hc        1 MOL      0.061400
     18 H10         0.6260    0.3700   -5.2390 hc        1 MOL      0.068900
     19 H11        -0.9280    0.1010   -4.3990 hc        1 MOL      0.068900
     20 H12        -1.0190   -0.4900   -6.7080 ho        1 MOL      0.421300
@<TRIPOS>BOND
     1    1    2 1   
     2    2    3 1   
     3    3    4 1   
     4    4    5 1   
     5    5    6 1   
     6    6    7 2   
     7    6    8 1   
     8    1    9 1   
     9    1   10 1   
    10    1   11 1   
    11    2   12 1   
    12    2   13 1   
    13    3   14 1   
    14    3   15 1   
    15    4   16 1   
    16    4   17 1   
    17    5   18 1   
    18    5   19 1   
    19    8   20 1   
@<TRIPOS>SUBSTRUCTURE
     1 MOL         1 TEMP              0 ****  ****    0 ROOT
