@<TRIPOS>MOLECULE
1-bromohexane
   20    19     1     0     0
SMALL
No Charge or Current Charge


@<TRIPOS>ATOM
      1 C1          0.1560    1.4870   -2.8240 c3        1 MOL     -0.091800
      2 C2         -0.5360    1.0930   -1.5290 c3        1 MOL     -0.079600
      3 C3          0.3490    0.1850   -0.6750 c3        1 MOL     -0.079500
      4 C4         -0.3510   -0.2090    0.6280 c3        1 MOL     -0.078400
      5 C5          0.5380   -1.1190    1.4820 c3        1 MOL     -0.081600
      6 C6         -0.1180   -1.5360    2.7890 c3        1 MOL     -0.007100
      7 Br1         1.0540   -2.6880    3.8320 br        1 MOL     -0.181300
      8 H1         -0.4840    2.1360   -3.4290 hc        1 MOL      0.034000
      9 H2          0.3910    0.5960   -3.4140 hc        1 MOL      0.034000
     10 H3          1.0920    2.0170   -2.6230 hc        1 MOL      0.034000
     11 H4         -0.7910    2.0000   -0.9680 hc        1 MOL      0.038400
     12 H5         -1.4770    0.5820   -1.7650 hc        1 MOL      0.038400
     13 H6          1.2900    0.7000   -0.4450 hc        1 MOL      0.041000
     14 H7          0.6050   -0.7180   -1.2420 hc        1 MOL      0.041000
     15 H8         -1.2900   -0.7270    0.3960 hc        1 MOL      0.041500
     16 H9         -0.6120    0.6980    1.1840 hc        1 MOL      0.041500
     17 H10         1.4990   -0.6260    1.6740 hc        1 MOL      0.055700
     18 H11         0.7580   -2.0270    0.9070 hc        1 MOL      0.055700
     19 H12        -0.3770   -0.6810    3.4190 h1        1 MOL      0.072000
     20 H13        -1.0180   -2.1280    2.5990 h1        1 MOL      0.072000
@<TRIPOS>BOND
     1    1    2 1   
     2    2    3 1   
     3    3    4 1   
     4    4    5 1   
     5    5    6 1   
     6    6    7 1   
     7    1    8 1   
     8    1    9 1   
     9    1   10 1   
    10    2   11 1   
    11    2   12 1   
    12    3   13 1   
    13    3   14 1   
    14    4   15 1   
    15    4   16 1   
    16    5   17 1   
    17    5   18 1   
    18    6   19 1   
    19    6   20 1   
@<TRIPOS>SUBSTRUCTURE
     1 MOL         1 TEMP              0 ****  ****    0 ROOT
