@<TRIPOS>MOLECULE
aniline
   14    14     1     0     0
SMALL
No Charge or Current Charge


@<TRIPOS>ATOM
      1 C1          1.8850   -1.0360   -0.1120 ca        1 MOL     -0.172900
      2 C2          2.9210   -1.6310    0.6080 ca        1 MOL     -0.093500
      3 C3          2.8780   -1.6520    2.0020 ca        1 MOL     -0.189800
      4 C4          1.8000   -1.0790    2.6760 ca        1 MOL      0.135600
      5 C5          0.7640   -0.4840    1.9550 ca        1 MOL     -0.189800
      6 C6          0.8070   -0.4630    0.5610 ca        1 MOL     -0.093500
      7 N1          1.7570   -1.1000    4.0850 nh        1 MOL     -0.817600
      8 H1          1.9180   -1.0200   -1.1980 ha        1 MOL      0.129800
      9 H2          3.7610   -2.0770    0.0840 ha        1 MOL      0.129300
     10 H3          3.6910   -2.1180    2.5530 ha        1 MOL      0.130400
     11 H4         -0.0810   -0.0350    2.4700 ha        1 MOL      0.130400
     12 H5          0.0000   -0.0000   -0.0000 ha        1 MOL      0.129300
     13 H6          1.0020   -0.6450    4.5570 hn        1 MOL      0.386300
     14 H7          2.5280   -1.4880    4.5910 hn        1 MOL      0.386300
@<TRIPOS>BOND
     1    1    6 ar  
     2    1    2 ar  
     3    2    3 ar  
     4    3    4 ar  
     5    4    5 ar  
     6    5    6 ar  
     7    4    7 1   
     8    1    8 1   
     9    2    9 1   
    10    3   10 1   
    11    5   11 1   
    12    6   12 1   
    13    7   13 1   
    14    7   14 1   
@<TRIPOS>SUBSTRUCTURE
     1 MOL         1 TEMP              0 ****  ****    0 ROOT
