@<TRIPOS>MOLECULE
1,3-dimethylnaphthalene
   24    25     1     0     0
SMALL
No Charge or Current Charge


@<TRIPOS>ATOM
      1 C1         -1.8850   -1.7020    0.9270 c3        1 MOL     -0.054300
      2 C2         -0.4970   -2.0340    0.4940 ca        1 MOL     -0.070400
      3 C3          0.3500   -1.0280    0.0390 ca        1 MOL     -0.129600
      4 C4          1.6480   -1.3370   -0.3660 ca        1 MOL     -0.060700
      5 C5          2.1170   -2.6600   -0.3220 ca        1 MOL     -0.034600
      6 C6          3.4210   -2.9900   -0.7270 ca        1 MOL     -0.117300
      7 C7          3.8690   -4.3100   -0.6760 ca        1 MOL     -0.131200
      8 C8          3.0230   -5.3170   -0.2210 ca        1 MOL     -0.127000
      9 C9          1.7240   -5.0070    0.1850 ca        1 MOL     -0.119600
     10 C10         1.2560   -3.6840    0.1400 ca        1 MOL     -0.029200
     11 C11        -0.0480   -3.3540    0.5450 ca        1 MOL     -0.127200
     12 C12         2.5070   -0.2070   -0.8450 c3        1 MOL     -0.056600
     13 H1         -1.8970   -1.4680    1.9960 hc        1 MOL      0.044300
     14 H2         -2.2730   -0.8420    0.3720 hc        1 MOL      0.044300
     15 H3         -2.5630   -2.5420    0.7410 hc        1 MOL      0.044300
     16 H4         -0.0030    0.0010    0.0010 ha        1 MOL      0.132000
     17 H5          4.1120   -2.2320   -1.0880 ha        1 MOL      0.131800
     18 H6          4.8800   -4.5520   -0.9910 ha        1 MOL      0.131100
     19 H7          3.3730   -6.3440   -0.1820 ha        1 MOL      0.131200
     20 H8          1.0800   -5.8100    0.5370 ha        1 MOL      0.131100
     21 H9         -0.7210   -4.1320    0.9020 ha        1 MOL      0.131700
     22 H10         3.0580    0.2280   -0.0050 hc        1 MOL      0.045300
     23 H11         3.2240   -0.5510   -1.5980 hc        1 MOL      0.045300
     24 H12         1.8990    0.5760   -1.3120 hc        1 MOL      0.045300
@<TRIPOS>BOND
     1    1    2 1   
     2    2   11 ar  
     3    2    3 ar  
     4    3    4 ar  
     5    4    5 ar  
     6    5   10 ar  
     7    5    6 ar  
     8    6    7 ar  
     9    7    8 ar  
    10    8    9 ar  
    11    9   10 ar  
    12   10   11 ar  
    13    4   12 1   
    14    1   13 1   
    15    1   14 1   
    16    1   15 1   
    17    3   16 1   
    18    6   17 1   
    19    7   18 1   
    20    8   19 1   
    21    9   20 1   
    22   11   21 1   
    23   12   22 1   
    24   12   23 1   
    25   12   24 1   
@<TRIPOS>SUBSTRUCTURE
     1 MOL         1 TEMP              0 ****  ****    0 ROOT
