@<TRIPOS>MOLECULE
butanenitrile
   12    11     1     0     0
SMALL
No Charge or Current Charge


@<TRIPOS>ATOM
      1 C1         -0.0180    0.2010   -1.0760 c3        1 MOL     -0.094800
      2 C2         -1.1840    1.1050   -1.4420 c3        1 MOL     -0.079700
      3 C3         -1.0970    2.4510   -0.7270 c3        1 MOL     -0.022600
      4 C4         -2.2280    3.3160   -1.0880 c1        1 MOL      0.210100
      5 N1         -3.1210    4.0000   -1.3720 n1        1 MOL     -0.376800
      6 H1         -0.0890   -0.7610   -1.5930 hc        1 MOL      0.038400
      7 H2          0.9370    0.6650   -1.3430 hc        1 MOL      0.038400
      8 H3         -0.0120    0.0080    0.0010 hc        1 MOL      0.038400
      9 H4         -1.1960    1.2560   -2.5290 hc        1 MOL      0.051300
     10 H5         -2.1240    0.6020   -1.1830 hc        1 MOL      0.051300
     11 H6         -0.1570    2.9510   -0.9890 hc        1 MOL      0.072900
     12 H7         -1.0870    2.2970    0.3580 hc        1 MOL      0.072900
@<TRIPOS>BOND
     1    1    2 1   
     2    2    3 1   
     3    3    4 1   
     4    4    5 3   
     5    1    6 1   
     6    1    7 1   
     7    1    8 1   
     8    2    9 1   
     9    2   10 1   
    10    3   11 1   
    11    3   12 1   
@<TRIPOS>SUBSTRUCTURE
     1 MOL         1 TEMP              0 ****  ****    0 ROOT
