@<TRIPOS>MOLECULE
1,2-dimethoxyethane
   16    15     1     0     0
SMALL
No Charge or Current Charge


@<TRIPOS>ATOM
      1 C1          0.3040    0.8200    2.4300 c3        1 MOL      0.114300
      2 O1         -0.8530    0.2360    1.8470 os        1 MOL     -0.406000
      3 C2         -0.8940    0.4510    0.4420 c3        1 MOL      0.127000
      4 C3         -2.1460   -0.1940   -0.1210 c3        1 MOL      0.127000
      5 O2         -2.1150   -1.5890    0.1550 os        1 MOL     -0.406000
      6 C4         -3.2680   -2.2460   -0.3510 c3        1 MOL      0.114300
      7 H1          0.3020    0.6360    3.5080 h1        1 MOL      0.032300
      8 H2          0.3090    1.8950    2.2340 h1        1 MOL      0.032300
      9 H3          1.1940    0.3660    1.9870 h1        1 MOL      0.032300
     10 H4         -0.8900    1.5300    0.2610 h1        1 MOL      0.033800
     11 H5          0.0000    0.0000    0.0000 h1        1 MOL      0.033800
     12 H6         -2.2040   -0.0620   -1.2060 h1        1 MOL      0.033800
     13 H7         -3.0380    0.2290    0.3500 h1        1 MOL      0.033800
     14 H8         -3.2070   -3.3100   -0.1200 h1        1 MOL      0.032300
     15 H9         -3.3240   -2.0950   -1.4300 h1        1 MOL      0.032300
     16 H10        -4.1520   -1.8180    0.1250 h1        1 MOL      0.032300
@<TRIPOS>BOND
     1    1    2 1   
     2    2    3 1   
     3    3    4 1   
     4    4    5 1   
     5    5    6 1   
     6    1    7 1   
     7    1    8 1   
     8    1    9 1   
     9    3   10 1   
    10    3   11 1   
    11    4   12 1   
    12    4   13 1   
    13    6   14 1   
    14    6   15 1   
    15    6   16 1   
@<TRIPOS>SUBSTRUCTURE
     1 MOL         1 TEMP              0 ****  ****    0 ROOT
