@<TRIPOS>MOLECULE
octane
   26    25     1     0     0
SMALL
No Charge or Current Charge


@<TRIPOS>ATOM
      1 C1          0.5810   -1.0130    0.8660 c3        1 MOL     -0.092200
      2 C2          0.2770   -0.4860    2.2600 c3        1 MOL     -0.080000
      3 C3          0.8900    0.8980    2.4780 c3        1 MOL     -0.079300
      4 C4          0.6120    1.4740    3.8700 c3        1 MOL     -0.078400
      5 C5          1.2250    2.8590    4.0890 c3        1 MOL     -0.078400
      6 C6          0.9170    3.3850    5.4930 c3        1 MOL     -0.079300
      7 C7          1.5280    4.7680    5.7150 c3        1 MOL     -0.080000
      8 C8          1.2240    5.2950    7.1080 c3        1 MOL     -0.092100
      9 H1          0.1400   -2.0040    0.7160 hc        1 MOL      0.032500
     10 H2          0.1860   -0.3410    0.0970 hc        1 MOL      0.032500
     11 H3          1.6620   -1.0970    0.7200 hc        1 MOL      0.032500
     12 H4         -0.8100   -0.4470    2.3890 hc        1 MOL      0.037900
     13 H5          0.6690   -1.1900    3.0030 hc        1 MOL      0.037900
     14 H6          1.9770    0.8320    2.3470 hc        1 MOL      0.038900
     15 H7          0.5210    1.5910    1.7130 hc        1 MOL      0.038900
     16 H8         -0.4710    1.5160    4.0410 hc        1 MOL      0.039400
     17 H9          1.0220    0.7800    4.6140 hc        1 MOL      0.039400
     18 H10         0.8330    3.5650    3.3480 hc        1 MOL      0.039400
     19 H11         2.3110    2.8070    3.9470 hc        1 MOL      0.039400
     20 H12         1.3090    2.6860    6.2420 hc        1 MOL      0.038900
     21 H13        -0.1700    3.4350    5.6360 hc        1 MOL      0.038900
     22 H14         1.1360    5.4720    4.9710 hc        1 MOL      0.037900
     23 H15         2.6140    4.7220    5.5770 hc        1 MOL      0.037900
     24 H16         1.6700    6.2850    7.2450 hc        1 MOL      0.032500
     25 H17         1.6310    4.6290    7.8760 hc        1 MOL      0.032500
     26 H18         0.1440    5.3830    7.2670 hc        1 MOL      0.032500
@<TRIPOS>BOND
     1    1    2 1   
     2    2    3 1   
     3    3    4 1   
     4    4    5 1   
     5    5    6 1   
     6    6    7 1   
     7    7    8 1   
     8    1    9 1   
     9    1   10 1   
    10    1   11 1   
    11    2   12 1   
    12    2   13 1   
    13    3   14 1   
    14    3   15 1   
    15    4   16 1   
    16    4   17 1   
    17    5   18 1   
    18    5   19 1   
    19    6   20 1   
    20    6   21 1   
    21    7   22 1   
    22    7   23 1   
    23    8   24 1   
    24    8   25 1   
    25    8   26 1   
@<TRIPOS>SUBSTRUCTURE
     1 MOL         1 TEMP              0 ****  ****    0 ROOT
