@<TRIPOS>MOLECULE
ethyl
   21    21     1     0     0
SMALL
No Charge or Current Charge


@<TRIPOS>ATOM
      1 C1         -0.8760   -1.0410   -3.9100 c3        1 MOL     -0.099500
      2 C2          0.5830   -1.0170   -3.5060 c3        1 MOL      0.133300
      3 O1          0.6720   -1.0340   -2.0770 os        1 MOL     -0.436700
      4 C3          1.9290   -1.0160   -1.5660 c         1 MOL      0.647600
      5 O2          2.9700   -0.9870   -2.2040 o         1 MOL     -0.536100
      6 C4          1.8850   -1.0360   -0.1120 ca        1 MOL     -0.133900
      7 C5          2.9210   -1.6310    0.6080 ca        1 MOL     -0.073200
      8 C6          2.8780   -1.6520    2.0020 ca        1 MOL     -0.144900
      9 C7          1.8000   -1.0790    2.6760 ca        1 MOL     -0.099600
     10 C8          0.7640   -0.4840    1.9550 ca        1 MOL     -0.144900
     11 C9          0.8070   -0.4630    0.5610 ca        1 MOL     -0.073200
     12 H1         -0.9800   -1.0290   -4.9980 hc        1 MOL      0.047400
     13 H2         -1.3710   -1.9350   -3.5170 hc        1 MOL      0.047400
     14 H3         -1.4050   -0.1760   -3.4950 hc        1 MOL      0.047400
     15 H4          1.0700   -0.1110   -3.8790 h1        1 MOL      0.049400
     16 H5          1.1050   -1.8930   -3.9020 h1        1 MOL      0.049400
     17 H6          3.7660   -2.0810    0.0930 ha        1 MOL      0.153400
     18 H7          3.6850   -2.1150    2.5630 ha        1 MOL      0.139100
     19 H8          1.7660   -1.0950    3.7610 ha        1 MOL      0.135300
     20 H9         -0.0760   -0.0380    2.4800 ha        1 MOL      0.139100
     21 H10        -0.0060    0.0040    0.0100 ha        1 MOL      0.153400
@<TRIPOS>BOND
     1    1    2 1   
     2    2    3 1   
     3    3    4 1   
     4    4    5 2   
     5    4    6 1   
     6    6   11 ar  
     7    6    7 ar  
     8    7    8 ar  
     9    8    9 ar  
    10    9   10 ar  
    11   10   11 ar  
    12    1   12 1   
    13    1   13 1   
    14    1   14 1   
    15    2   15 1   
    16    2   16 1   
    17    7   17 1   
    18    8   18 1   
    19    9   19 1   
    20   10   20 1   
    21   11   21 1   
@<TRIPOS>SUBSTRUCTURE
     1 MOL         1 TEMP              0 ****  ****    0 ROOT
