@<TRIPOS>MOLECULE
1-amino-4-hydroxy-anthracene-9,10-dione
   27    29     1     0     0
SMALL
No Charge or Current Charge


@<TRIPOS>ATOM
      1 C1          1.2900   -1.6870   -0.3520 ca        1 MOL     -0.121300
      2 C2          0.9560   -0.4630    0.2260 ca        1 MOL     -0.117000
      3 C3          1.8480    0.1680    1.0930 ca        1 MOL     -0.091200
      4 C4          3.0810   -0.4280    1.3840 ca        1 MOL     -0.120700
      5 C5          3.4160   -1.6540    0.8060 ca        1 MOL     -0.131000
      6 C6          2.5180   -2.2840   -0.0640 ca        1 MOL     -0.088200
      7 C7          4.7130   -2.2940    1.1040 c         1 MOL      0.602100
      8 O1          4.9720   -3.3690    0.5780 o         1 MOL     -0.571100
      9 C8          5.6520   -1.6180    2.0240 ca        1 MOL     -0.188100
     10 C9          6.8850   -2.2140    2.3150 ca        1 MOL      0.202500
     11 C10         7.7770   -1.5830    3.1820 ca        1 MOL     -0.157800
     12 C11         7.4420   -0.3590    3.7590 ca        1 MOL     -0.149600
     13 C12         6.2150    0.2380    3.4720 ca        1 MOL      0.114400
     14 C13         5.3170   -0.3920    2.6020 ca        1 MOL     -0.115800
     15 C14         4.0190    0.2480    2.3040 c         1 MOL      0.583000
     16 O2          3.7020    1.3230    2.7970 o         1 MOL     -0.496800
     17 O3          5.9500    1.4350    4.0690 oh        1 MOL     -0.458600
     18 N1          7.2930   -3.4520    1.7680 nh        1 MOL     -0.842400
     19 H1          0.5940   -2.1750   -1.0270 ha        1 MOL      0.140900
     20 H2          0.0000    0.0000   -0.0010 ha        1 MOL      0.139600
     21 H3          1.5630    1.1220    1.5280 ha        1 MOL      0.158500
     22 H4          2.7520   -3.2380   -0.5280 ha        1 MOL      0.158600
     23 H5          8.7370   -2.0340    3.4170 ha        1 MOL      0.140600
     24 H6          8.1450    0.1240    4.4340 ha        1 MOL      0.140600
     25 H7          6.6940    1.7000    4.6310 ho        1 MOL      0.413900
     26 H8          6.6610   -3.9550    1.1810 hn        1 MOL      0.427500
     27 H9          8.1660   -3.8440    2.0550 hn        1 MOL      0.427500
@<TRIPOS>BOND
     1    1    6 ar  
     2    1    2 ar  
     3    2    3 ar  
     4    3    4 ar  
     5    4   15 1   
     6    4    5 ar  
     7    5    6 ar  
     8    5    7 1   
     9    7    8 2   
    10    7    9 1   
    11    9   14 ar  
    12    9   10 ar  
    13   10   11 ar  
    14   11   12 ar  
    15   12   13 ar  
    16   13   14 ar  
    17   14   15 1   
    18   15   16 2   
    19   13   17 1   
    20   10   18 1   
    21    1   19 1   
    22    2   20 1   
    23    3   21 1   
    24    6   22 1   
    25   11   23 1   
    26   12   24 1   
    27   17   25 1   
    28   18   26 1   
    29   18   27 1   
@<TRIPOS>SUBSTRUCTURE
     1 MOL         1 TEMP              0 ****  ****    0 ROOT
