@<TRIPOS>MOLECULE
methylsulfanylethane
   12    11     1     0     0
SMALL
No Charge or Current Charge


@<TRIPOS>ATOM
      1 C1          0.4410   -0.3500    0.9400 c3        1 MOL     -0.081000
      2 C2          1.8520   -0.8680    0.7340 c3        1 MOL     -0.013600
      3 S1          2.9260    0.4450    0.0920 ss        1 MOL     -0.294300
      4 C3          4.4610   -0.5020   -0.0230 c3        1 MOL     -0.040100
      5 H1         -0.2220   -1.1310    1.3270 hc        1 MOL      0.045000
      6 H2          0.4210    0.4990    1.6310 hc        1 MOL      0.045000
      7 H3          0.0270   -0.0090   -0.0150 hc        1 MOL      0.045000
      8 H4          1.8500   -1.7010    0.0240 h1        1 MOL      0.054500
      9 H5          2.2640   -1.2290    1.6810 h1        1 MOL      0.054500
     10 H6          5.2600    0.1360   -0.4040 h1        1 MOL      0.061700
     11 H7          4.3220   -1.3470   -0.7000 h1        1 MOL      0.061700
     12 H8          4.7380   -0.8750    0.9650 h1        1 MOL      0.061700
@<TRIPOS>BOND
     1    1    2 1   
     2    2    3 1   
     3    3    4 1   
     4    1    5 1   
     5    1    6 1   
     6    1    7 1   
     7    2    8 1   
     8    2    9 1   
     9    4   10 1   
    10    4   11 1   
    11    4   12 1   
@<TRIPOS>SUBSTRUCTURE
     1 MOL         1 TEMP              0 ****  ****    0 ROOT
