@<TRIPOS>MOLECULE
1-chloropentane
   17    16     1     0     0
SMALL
No Charge or Current Charge


@<TRIPOS>ATOM
      1 C1         -0.2350   -0.7100   -0.9420 c3        1 MOL     -0.092800
      2 C2          0.9420   -0.5150   -1.8850 c3        1 MOL     -0.078700
      3 C3          0.9810    0.9090   -2.4410 c3        1 MOL     -0.083600
      4 C4          2.1520    1.1570   -3.4000 c3        1 MOL     -0.088200
      5 C5          2.2430    2.5630   -3.9860 c3        1 MOL      0.039600
      6 Cl1         0.7950    2.9940   -4.9230 cl        1 MOL     -0.201400
      7 H1         -0.2580   -1.7310   -0.5480 hc        1 MOL      0.034000
      8 H2         -1.1840   -0.5170   -1.4520 hc        1 MOL      0.034000
      9 H3         -0.1600   -0.0200   -0.0950 hc        1 MOL      0.034000
     10 H4          1.8720   -0.7330   -1.3490 hc        1 MOL      0.038600
     11 H5          0.8580   -1.2400   -2.7020 hc        1 MOL      0.038600
     12 H6          1.0740    1.6150   -1.6060 hc        1 MOL      0.047900
     13 H7          0.0300    1.1410   -2.9340 hc        1 MOL      0.047900
     14 H8          2.0840    0.4420   -4.2290 hc        1 MOL      0.052000
     15 H9          3.0860    0.9270   -2.8730 hc        1 MOL      0.052000
     16 H10         2.3330    3.2960   -3.1790 h1        1 MOL      0.063000
     17 H11         3.1140    2.6760   -4.6360 h1        1 MOL      0.063000
@<TRIPOS>BOND
     1    1    2 1   
     2    2    3 1   
     3    3    4 1   
     4    4    5 1   
     5    5    6 1   
     6    1    7 1   
     7    1    8 1   
     8    1    9 1   
     9    2   10 1   
    10    2   11 1   
    11    3   12 1   
    12    3   13 1   
    13    4   14 1   
    14    4   15 1   
    15    5   16 1   
    16    5   17 1   
@<TRIPOS>SUBSTRUCTURE
     1 MOL         1 TEMP              0 ****  ****    0 ROOT
