@<TRIPOS>MOLECULE
but-1-yne
   10     9     1     0     0
SMALL
No Charge or Current Charge


@<TRIPOS>ATOM
      1 C1          1.0320    0.2740    0.2460 c3        1 MOL     -0.089700
      2 C2          1.4680   -0.3550    1.5590 c3        1 MOL     -0.004200
      3 C3          1.3990   -1.8210    1.4970 c1        1 MOL     -0.139100
      4 C4          1.3440   -3.0190    1.4500 c1        1 MOL     -0.162800
      5 H1          1.0840    1.3670    0.2940 hc        1 MOL      0.039200
      6 H2          0.0010   -0.0020   -0.0020 hc        1 MOL      0.039200
      7 H3          1.6790   -0.0620   -0.5700 hc        1 MOL      0.039200
      8 H4          0.8280    0.0120    2.3680 hc        1 MOL      0.057500
      9 H5          2.4920   -0.0420    1.7890 hc        1 MOL      0.057500
     10 H6          1.2950   -4.0820    1.4090 ha        1 MOL      0.163200
@<TRIPOS>BOND
     1    1    2 1   
     2    2    3 1   
     3    3    4 3   
     4    1    5 1   
     5    1    6 1   
     6    1    7 1   
     7    2    8 1   
     8    2    9 1   
     9    4   10 1   
@<TRIPOS>SUBSTRUCTURE
     1 MOL         1 TEMP              0 ****  ****    0 ROOT
