@<TRIPOS>MOLECULE
pyridine
   11    11     1     0     0
SMALL
No Charge or Current Charge


@<TRIPOS>ATOM
      1 C1          1.3880   -0.0680    1.6520 ca        1 MOL     -0.094800
      2 C2          0.2270   -0.4200    0.9730 ca        1 MOL     -0.246000
      3 C3         -0.6320   -1.3220    1.5800 ca        1 MOL      0.393200
      4 N1         -0.4090   -1.8820    2.7910 nb        1 MOL     -0.665500
      5 C4          0.7300   -1.5160    3.4210 ca        1 MOL      0.393200
      6 C5          1.6520   -0.6230    2.9000 ca        1 MOL     -0.246000
      7 H1          2.0860    0.6370    1.2100 ha        1 MOL      0.135700
      8 H2          0.0000   -0.0010   -0.0000 ha        1 MOL      0.143700
      9 H3         -1.5510   -1.6280    1.0920 h4        1 MOL      0.021300
     10 H4          0.8880   -1.9760    4.3910 h4        1 MOL      0.021300
     11 H5          2.5510   -0.3630    3.4470 ha        1 MOL      0.143700
@<TRIPOS>BOND
     1    1    6 ar  
     2    1    2 ar  
     3    2    3 ar  
     4    3    4 ar  
     5    4    5 ar  
     6    5    6 ar  
     7    1    7 1   
     8    2    8 1   
     9    3    9 1   
    10    5   10 1   
    11    6   11 1   
@<TRIPOS>SUBSTRUCTURE
     1 MOL         1 TEMP              0 ****  ****    0 ROOT
