@<TRIPOS>MOLECULE
(1R,2S)-1,2-dimethylcyclohexane
   24    24     1     0     0
SMALL
No Charge or Current Charge


@<TRIPOS>ATOM
      1 C1          3.4430   -1.0420    2.0540 c3        1 MOL     -0.088300
      2 C2          2.0170   -1.4140    2.4780 c3        1 MOL     -0.058100
      3 H1          2.0550   -2.4520    2.8340 hc        1 MOL      0.042100
      4 C3          1.0620   -1.3800    1.2710 c3        1 MOL     -0.073200
      5 C4          0.7400    0.0390    0.8070 c3        1 MOL     -0.075300
      6 C5          0.2010    0.8940    1.9490 c3        1 MOL     -0.075300
      7 C6          1.1340    0.8900    3.1580 c3        1 MOL     -0.073200
      8 C7          1.4550   -0.5380    3.6250 c3        1 MOL     -0.058100
      9 H2          0.5090   -0.9980    3.9440 hc        1 MOL      0.042100
     10 C8          2.3660   -0.5070    4.8530 c3        1 MOL     -0.088300
     11 H3          3.4790   -0.0120    1.6860 hc        1 MOL      0.033500
     12 H4          4.1310   -1.1290    2.9010 hc        1 MOL      0.033500
     13 H5          3.7930   -1.7050    1.2570 hc        1 MOL      0.033500
     14 H6          1.4840   -1.9520    0.4360 hc        1 MOL      0.038200
     15 H7          0.1260   -1.8810    1.5480 hc        1 MOL      0.038200
     16 H8          1.6370    0.5090    0.3880 hc        1 MOL      0.037900
     17 H9          0.0000   -0.0000   -0.0000 hc        1 MOL      0.037900
     18 H10         0.0530    1.9230    1.6010 hc        1 MOL      0.037900
     19 H11        -0.7830    0.5160    2.2510 hc        1 MOL      0.037900
     20 H12         2.0570    1.4270    2.9070 hc        1 MOL      0.038200
     21 H13         0.6600    1.4500    3.9740 hc        1 MOL      0.038200
     22 H14         2.5860   -1.5240    5.1720 hc        1 MOL      0.033500
     23 H15         1.8720    0.0240    5.6630 hc        1 MOL      0.033500
     24 H16         3.2970   -0.0000    4.6060 hc        1 MOL      0.033500
@<TRIPOS>BOND
     1    1    2 1   
     2    2    3 1   
     3    2    8 1   
     4    2    4 1   
     5    4    5 1   
     6    5    6 1   
     7    6    7 1   
     8    7    8 1   
     9    8    9 1   
    10    8   10 1   
    11    1   11 1   
    12    1   12 1   
    13    1   13 1   
    14    4   14 1   
    15    4   15 1   
    16    5   16 1   
    17    5   17 1   
    18    6   18 1   
    19    6   19 1   
    20    7   20 1   
    21    7   21 1   
    22   10   22 1   
    23   10   23 1   
    24   10   24 1   
@<TRIPOS>SUBSTRUCTURE
     1 MOL         1 TEMP              0 ****  ****    0 ROOT
