@<TRIPOS>MOLECULE
pentane
   17    16     1     0     0
SMALL
No Charge or Current Charge


@<TRIPOS>ATOM
      1 C1         -0.5110    0.9040   -0.3450 c3        1 MOL     -0.092100
      2 C2         -0.5700    0.9510   -1.8630 c3        1 MOL     -0.079500
      3 C3          0.8290    0.9520   -2.4790 c3        1 MOL     -0.079000
      4 C4          0.7650    1.0000   -4.0050 c3        1 MOL     -0.079500
      5 C5          2.1550    1.0000   -4.6210 c3        1 MOL     -0.092100
      6 H1         -1.5170    0.9040    0.0870 hc        1 MOL      0.032400
      7 H2          0.0340    1.7660    0.0530 hc        1 MOL      0.032400
      8 H3          0.0010   -0.0050   -0.0140 hc        1 MOL      0.032400
      9 H4         -1.1370    0.0870   -2.2280 hc        1 MOL      0.037700
     10 H5         -1.1140    1.8510   -2.1740 hc        1 MOL      0.037700
     11 H6          1.3710    0.0520   -2.1610 hc        1 MOL      0.038400
     12 H7          1.3930    1.8160   -2.1080 hc        1 MOL      0.038400
     13 H8          0.2050    0.1360   -4.3820 hc        1 MOL      0.037700
     14 H9          0.2280    1.8990   -4.3270 hc        1 MOL      0.037700
     15 H10         2.1000    1.0350   -5.7140 hc        1 MOL      0.032400
     16 H11         2.6960    0.0930   -4.3370 hc        1 MOL      0.032400
     17 H12         2.7350    1.8630   -4.2790 hc        1 MOL      0.032400
@<TRIPOS>BOND
     1    1    2 1   
     2    2    3 1   
     3    3    4 1   
     4    4    5 1   
     5    1    6 1   
     6    1    7 1   
     7    1    8 1   
     8    2    9 1   
     9    2   10 1   
    10    3   11 1   
    11    3   12 1   
    12    4   13 1   
    13    4   14 1   
    14    5   15 1   
    15    5   16 1   
    16    5   17 1   
@<TRIPOS>SUBSTRUCTURE
     1 MOL         1 TEMP              0 ****  ****    0 ROOT
