@<TRIPOS>MOLECULE
2,5-dimethylphenol
   19    19     1     0     0
SMALL
No Charge or Current Charge


@<TRIPOS>ATOM
      1 C1          1.9320   -1.0130   -1.6030 c3        1 MOL     -0.056300
      2 C2          1.8850   -1.0360   -0.1120 ca        1 MOL     -0.043400
      3 C3          2.9210   -1.6310    0.6080 ca        1 MOL     -0.161000
      4 C4          2.8780   -1.6520    2.0020 ca        1 MOL     -0.098300
      5 C5          1.8000   -1.0790    2.6760 ca        1 MOL     -0.103500
      6 C6          0.7640   -0.4840    1.9550 ca        1 MOL      0.125400
      7 C7          0.8070   -0.4630    0.5610 ca        1 MOL     -0.212100
      8 O1         -0.2970    0.0810    2.5970 oh        1 MOL     -0.499500
      9 C8          1.7700   -1.1110    4.1680 c3        1 MOL     -0.043700
     10 H1          2.4400   -0.1080   -1.9480 hc        1 MOL      0.045100
     11 H2          2.4640   -1.8880   -1.9910 hc        1 MOL      0.045100
     12 H3          0.9220   -1.0360   -2.0260 hc        1 MOL      0.045100
     13 H4          3.7650   -2.0790    0.0910 ha        1 MOL      0.133100
     14 H5          3.6910   -2.1170    2.5550 ha        1 MOL      0.133500
     15 H6         -0.0020    0.0010    0.0010 ha        1 MOL      0.132400
     16 H7         -0.9220    0.4470    1.9520 ho        1 MOL      0.417600
     17 H8          2.2600   -0.2200    4.5780 hc        1 MOL      0.046900
     18 H9          0.7400   -1.1480    4.5440 hc        1 MOL      0.046900
     19 H10         2.2830   -2.0010    4.5560 hc        1 MOL      0.046900
@<TRIPOS>BOND
     1    1    2 1   
     2    2    7 ar  
     3    2    3 ar  
     4    3    4 ar  
     5    4    5 ar  
     6    5    6 ar  
     7    6    7 ar  
     8    6    8 1   
     9    5    9 1   
    10    1   10 1   
    11    1   11 1   
    12    1   12 1   
    13    3   13 1   
    14    4   14 1   
    15    7   15 1   
    16    8   16 1   
    17    9   17 1   
    18    9   18 1   
    19    9   19 1   
@<TRIPOS>SUBSTRUCTURE
     1 MOL         1 TEMP              0 ****  ****    0 ROOT
