@<TRIPOS>MOLECULE
dibenzo-p-dioxin
   22    24     1     0     0
SMALL
No Charge or Current Charge


@<TRIPOS>ATOM
      1 C1         -1.8580    0.7400    0.8000 ca        1 MOL     -0.127900
      2 C2         -1.0040   -0.2570    0.3260 ca        1 MOL     -0.127700
      3 C3         -1.4370   -1.5820    0.2690 ca        1 MOL     -0.116600
      4 C4         -2.7270   -1.9050    0.6890 ca        1 MOL      0.062900
      5 C5         -3.5800   -0.9100    1.1630 ca        1 MOL      0.062900
      6 C6         -3.1490    0.4150    1.2200 ca        1 MOL     -0.116600
      7 O1         -4.8560   -1.1830    1.5850 os        1 MOL     -0.225100
      8 C7         -5.2390   -2.4980    1.5120 ca        1 MOL      0.062900
      9 C8         -6.5290   -2.8210    1.9320 ca        1 MOL     -0.116600
     10 C9         -6.9620   -4.1460    1.8750 ca        1 MOL     -0.127700
     11 C10        -6.1070   -5.1430    1.4010 ca        1 MOL     -0.127700
     12 C11        -4.8170   -4.8180    0.9820 ca        1 MOL     -0.116600
     13 C12        -4.3860   -3.4940    1.0380 ca        1 MOL      0.062900
     14 O2         -3.1090   -3.2200    0.6160 os        1 MOL     -0.225100
     15 H1         -1.5170    1.7700    0.8420 ha        1 MOL      0.139200
     16 H2          0.0000   -0.0000    0.0010 ha        1 MOL      0.139200
     17 H3         -0.7660   -2.3530   -0.1010 ha        1 MOL      0.154800
     18 H4         -3.8080    1.1960    1.5870 ha        1 MOL      0.154800
     19 H5         -7.1990   -2.0510    2.3030 ha        1 MOL      0.154800
     20 H6         -7.9660   -4.4030    2.2010 ha        1 MOL      0.139200
     21 H7         -6.4480   -6.1740    1.3580 ha        1 MOL      0.139200
     22 H8         -4.1570   -5.5990    0.6130 ha        1 MOL      0.154800
@<TRIPOS>BOND
     1    1    6 ar  
     2    1    2 ar  
     3    2    3 ar  
     4    3    4 ar  
     5    4   14 1   
     6    4    5 ar  
     7    5    6 ar  
     8    5    7 1   
     9    7    8 1   
    10    8   13 ar  
    11    8    9 ar  
    12    9   10 ar  
    13   10   11 ar  
    14   11   12 ar  
    15   12   13 ar  
    16   13   14 1   
    17    1   15 1   
    18    2   16 1   
    19    3   17 1   
    20    6   18 1   
    21    9   19 1   
    22   10   20 1   
    23   11   21 1   
    24   12   22 1   
@<TRIPOS>SUBSTRUCTURE
     1 MOL         1 TEMP              0 ****  ****    0 ROOT
