@<TRIPOS>MOLECULE
(2S)-2-(6-methoxy-2-naphthyl)propanoic
   31    32     1     0     0
SMALL
No Charge or Current Charge


@<TRIPOS>ATOM
      1 C1         -2.1510   -2.0710    2.3890 c3        1 MOL     -0.098900
      2 C2         -1.8840   -1.7020    0.9280 c3        1 MOL     -0.096300
      3 H1         -2.0050   -0.6140    0.8310 hc        1 MOL      0.074800
      4 C3         -0.4970   -2.0340    0.4940 ca        1 MOL     -0.090900
      5 C4          0.3500   -1.0280    0.0390 ca        1 MOL     -0.107000
      6 C5          1.6480   -1.3370   -0.3660 ca        1 MOL     -0.124100
      7 C6          2.1170   -2.6600   -0.3220 ca        1 MOL      0.006100
      8 C7          3.4210   -2.9900   -0.7270 ca        1 MOL     -0.211100
      9 C8          3.8690   -4.3100   -0.6760 ca        1 MOL      0.133800
     10 C9          3.0230   -5.3170   -0.2210 ca        1 MOL     -0.138800
     11 C10         1.7240   -5.0070    0.1850 ca        1 MOL     -0.089200
     12 C11         1.2560   -3.6840    0.1400 ca        1 MOL     -0.065000
     13 C12        -0.0480   -3.3540    0.5450 ca        1 MOL     -0.078800
     14 O1          5.1360   -4.6130   -1.0720 os        1 MOL     -0.325200
     15 C13         5.5300   -5.9820   -0.9940 c3        1 MOL      0.111500
     16 C14        -2.9240   -2.3500    0.0250 c         1 MOL      0.619400
     17 O2         -3.4920   -3.4100    0.2470 o         1 MOL     -0.469300
     18 O3         -3.1640   -1.6120   -1.0910 oh        1 MOL     -0.587200
     19 H2         -2.0480   -3.1470    2.5650 hc        1 MOL      0.049000
     20 H3         -1.4630   -1.5470    3.0620 hc        1 MOL      0.049000
     21 H4         -3.1720   -1.8000    2.6800 hc        1 MOL      0.049000
     22 H5          0.0080    0.0030   -0.0030 ha        1 MOL      0.131700
     23 H6          2.2920   -0.5340   -0.7190 ha        1 MOL      0.134400
     24 H7          4.0950   -2.2150   -1.0850 ha        1 MOL      0.140700
     25 H8          3.3660   -6.3470   -0.1790 ha        1 MOL      0.151300
     26 H9          1.0800   -5.8100    0.5370 ha        1 MOL      0.137100
     27 H10        -0.7200   -4.1320    0.9030 ha        1 MOL      0.135600
     28 H11         6.5590   -6.0750   -1.3400 h1        1 MOL      0.045900
     29 H12         4.8620   -6.5790   -1.6140 h1        1 MOL      0.045900
     30 H13         5.4580   -6.3030    0.0440 h1        1 MOL      0.045900
     31 H14        -2.6500   -0.7790   -1.1640 ho        1 MOL      0.420600
@<TRIPOS>BOND
     1    1    2 1   
     2    2    3 1   
     3    2    4 1   
     4    4   13 ar  
     5    4    5 ar  
     6    5    6 ar  
     7    6    7 ar  
     8    7   12 ar  
     9    7    8 ar  
    10    8    9 ar  
    11    9   10 ar  
    12   10   11 ar  
    13   11   12 ar  
    14   12   13 ar  
    15    9   14 1   
    16   14   15 1   
    17    2   16 1   
    18   16   17 2   
    19   16   18 1   
    20    1   19 1   
    21    1   20 1   
    22    1   21 1   
    23    5   22 1   
    24    6   23 1   
    25    8   24 1   
    26   10   25 1   
    27   11   26 1   
    28   13   27 1   
    29   15   28 1   
    30   15   29 1   
    31   15   30 1   
    32   18   31 1   
@<TRIPOS>SUBSTRUCTURE
     1 MOL         1 TEMP              0 ****  ****    0 ROOT
