@<TRIPOS>MOLECULE
(2R,5R)-5-isopropenyl-2-methyl-cyclohexanone
   27    27     1     0     0
SMALL
No Charge or Current Charge


@<TRIPOS>ATOM
      1 C1          0.9640    0.6830   -2.5250 c3        1 MOL     -0.084400
      2 C2          0.6130   -0.0970   -1.2620 c3        1 MOL     -0.161900
      3 H1          1.2440   -0.9940   -1.2210 hc        1 MOL      0.068300
      4 C3         -0.8620   -0.5070   -1.2700 c3        1 MOL     -0.071700
      5 C4         -1.2620   -1.2250    0.0200 c3        1 MOL     -0.078600
      6 C5         -0.9860   -0.3460    1.2460 c3        1 MOL     -0.023100
      7 H2         -1.6030    0.5590    1.1640 hc        1 MOL      0.059400
      8 C6          0.4850    0.0700    1.3060 c3        1 MOL     -0.177100
      9 C7          0.9080    0.7080   -0.0010 c         1 MOL      0.567800
     10 O1          1.5300    1.7690   -0.0160 o         1 MOL     -0.530000
     11 C8         -1.3900   -1.0550    2.5020 c2        1 MOL     -0.107200
     12 C9         -0.8450   -2.2260    2.8630 c2        1 MOL     -0.223900
     13 C10        -2.4410   -0.3800    3.3340 c3        1 MOL     -0.063800
     14 H3          0.3530    1.5870   -2.6010 hc        1 MOL      0.043800
     15 H4          2.0180    0.9780   -2.5140 hc        1 MOL      0.043800
     16 H5          0.7870    0.0720   -3.4150 hc        1 MOL      0.043800
     17 H6         -1.4980    0.3790   -1.3960 hc        1 MOL      0.048700
     18 H7         -1.0610   -1.1650   -2.1250 hc        1 MOL      0.048700
     19 H8         -2.3270   -1.4800   -0.0310 hc        1 MOL      0.047900
     20 H9         -0.7110   -2.1710    0.0960 hc        1 MOL      0.047900
     21 H10         0.6450    0.7920    2.1160 hc        1 MOL      0.071500
     22 H11         1.1420   -0.7890    1.4890 hc        1 MOL      0.071500
     23 H12        -1.1460   -2.7310    3.7750 ha        1 MOL      0.113500
     24 H13        -0.0850   -2.7070    2.2550 ha        1 MOL      0.113500
     25 H14        -3.4390   -0.7100    3.0260 hc        1 MOL      0.043800
     26 H15        -2.3040   -0.6280    4.3910 hc        1 MOL      0.043800
     27 H16        -2.4060    0.7100    3.2390 hc        1 MOL      0.043800
@<TRIPOS>BOND
     1    1    2 1   
     2    2    3 1   
     3    2    9 1   
     4    2    4 1   
     5    4    5 1   
     6    5    6 1   
     7    6    7 1   
     8    6    8 1   
     9    8    9 1   
    10    9   10 2   
    11    6   11 1   
    12   11   12 2   
    13   11   13 1   
    14    1   14 1   
    15    1   15 1   
    16    1   16 1   
    17    4   17 1   
    18    4   18 1   
    19    5   19 1   
    20    5   20 1   
    21    8   21 1   
    22    8   22 1   
    23   12   23 1   
    24   12   24 1   
    25   13   25 1   
    26   13   26 1   
    27   13   27 1   
@<TRIPOS>SUBSTRUCTURE
     1 MOL         1 TEMP              0 ****  ****    0 ROOT
