@<TRIPOS>MOLECULE
3-methyl-1H-indole
   19    20     1     0     0
SMALL
No Charge or Current Charge


@<TRIPOS>ATOM
      1 C1         -4.2340    1.7080    4.5380 c3        1 MOL     -0.025700
      2 C2         -3.8590    0.6900    3.5360 cc        1 MOL     -0.132900
      3 C3         -4.5470   -0.4720    3.2740 cd        1 MOL     -0.002200
      4 N1         -3.8820   -1.1420    2.2820 na        1 MOL     -0.584700
      5 C4         -2.7680   -0.4310    1.8940 ca        1 MOL      0.081500
      6 C5         -2.7300    0.7290    2.6690 ca        1 MOL     -0.089300
      7 C6         -1.6770    1.6440    2.4700 ca        1 MOL     -0.080600
      8 C7         -0.7040    1.3640    1.5040 ca        1 MOL     -0.160100
      9 C8         -0.7670    0.1980    0.7450 ca        1 MOL     -0.113200
     10 C9         -1.8020   -0.7250    0.9250 ca        1 MOL     -0.146700
     11 H1         -4.8900    2.4560    4.0840 hc        1 MOL      0.039000
     12 H2         -4.7540    1.2490    5.3850 hc        1 MOL      0.039000
     13 H3         -3.3460    2.2100    4.9360 hc        1 MOL      0.039000
     14 H4         -5.4490   -0.8840    3.7040 h4        1 MOL      0.164800
     15 H5         -4.1660   -2.0300    1.8910 hn        1 MOL      0.452500
     16 H6         -1.6130    2.5570    3.0540 ha        1 MOL      0.133200
     17 H7          0.1110    2.0650    1.3460 ha        1 MOL      0.128700
     18 H8         -0.0000    0.0000   -0.0000 ha        1 MOL      0.127600
     19 H9         -1.8510   -1.6320    0.3320 ha        1 MOL      0.130200
@<TRIPOS>BOND
     1    1    2 1   
     2    2    6 1   
     3    2    3 2   
     4    3    4 1   
     5    4    5 1   
     6    5   10 ar  
     7    5    6 ar  
     8    6    7 ar  
     9    7    8 ar  
    10    8    9 ar  
    11    9   10 ar  
    12    1   11 1   
    13    1   12 1   
    14    1   13 1   
    15    3   14 1   
    16    4   15 1   
    17    7   16 1   
    18    8   17 1   
    19    9   18 1   
    20   10   19 1   
@<TRIPOS>SUBSTRUCTURE
     1 MOL         1 TEMP              0 ****  ****    0 ROOT
