@<TRIPOS>MOLECULE
(1R,2S,8R,9S)-1,9,10,11,12,12-hexachloro-4,6-dioxa-5-thiatricyclo[7.2.1.0^{2,8}]dodec-10-ene-
   25    27     1     0     0
SMALL
No Charge or Current Charge


@<TRIPOS>ATOM
      1 C1          1.2930    0.6380    1.5390 c3        1 MOL      0.162000
      2 C2          0.3970    0.9620    0.3400 c3        1 MOL     -0.101200
      3 H1          0.2090    2.0450    0.3800 hc        1 MOL      0.111100
      4 C3         -1.0210    0.2580    0.2990 c3        1 MOL     -0.101200
      5 H2         -1.7720    1.0620    0.3230 hc        1 MOL      0.111100
      6 C4         -1.3590   -0.6790    1.4630 c3        1 MOL      0.162000
      7 O1         -1.4750    0.0720    2.6710 os        1 MOL     -0.396600
      8 S1         -0.1560    0.1070    3.5970 s4        1 MOL      0.792300
      9 O2         -0.5310    0.7870    4.8800 o         1 MOL     -0.439000
     10 O3          0.7110    1.1570    2.7340 os        1 MOL     -0.396600
     11 C5         -1.0170   -0.4120   -1.1210 c3        1 MOL      0.078400
     12 C6          0.0330   -1.5070   -1.1040 c2        1 MOL     -0.039200
     13 C7          1.2310   -0.9120   -1.0700 c2        1 MOL     -0.039200
     14 C8          0.9930    0.5860   -1.0640 c3        1 MOL      0.078400
     15 C9         -0.2620    0.6430   -1.9900 c3        1 MOL      0.134900
     16 Cl1         0.0430    0.1260   -3.6920 cl        1 MOL     -0.085300
     17 Cl2        -1.0560    2.2470   -2.0870 cl        1 MOL     -0.085300
     18 Cl3         2.3330    1.5930   -1.5760 cl        1 MOL     -0.071500
     19 Cl4         2.7570   -1.6420   -1.0070 cl        1 MOL     -0.007400
     20 Cl5        -0.3100   -3.1650   -1.0950 cl        1 MOL     -0.007400
     21 Cl6        -2.6040   -0.8590   -1.7180 cl        1 MOL     -0.071500
     22 H3          2.2570    1.1460    1.4200 h1        1 MOL      0.052800
     23 H4          1.5180   -0.4310    1.6330 h1        1 MOL      0.052800
     24 H5         -2.3400   -1.1350    1.2880 h1        1 MOL      0.052800
     25 H6         -0.6480   -1.5060    1.5710 h1        1 MOL      0.052800
@<TRIPOS>BOND
     1    1   10 1   
     2    1    2 1   
     3    2    3 1   
     4    2   14 1   
     5    2    4 1   
     6    4    5 1   
     7    4    6 1   
     8    6    7 1   
     9    7    8 1   
    10    8    9 2   
    11    8   10 1   
    12    4   11 1   
    13   11   15 1   
    14   11   12 1   
    15   12   13 2   
    16   13   14 1   
    17   14   15 1   
    18   15   16 1   
    19   15   17 1   
    20   14   18 1   
    21   13   19 1   
    22   12   20 1   
    23   11   21 1   
    24    1   22 1   
    25    1   23 1   
    26    6   24 1   
    27    6   25 1   
@<TRIPOS>SUBSTRUCTURE
     1 MOL         1 TEMP              0 ****  ****    0 ROOT
