@<TRIPOS>MOLECULE
1-iodoheptane
   23    22     1     0     0
SMALL
No Charge or Current Charge


@<TRIPOS>ATOM
      1 C1         -2.0820   -3.4990    0.1640 c3        1 MOL     -0.092200
      2 C2         -0.8650   -2.6050    0.3410 c3        1 MOL     -0.080100
      3 C3         -1.0580   -1.1920   -0.2140 c3        1 MOL     -0.078700
      4 C4          0.1700   -0.2960   -0.0340 c3        1 MOL     -0.078800
      5 C5         -0.0770    1.1020   -0.6050 c3        1 MOL     -0.079900
      6 C6          1.1490    2.0010   -0.4260 c3        1 MOL     -0.076600
      7 C7          0.8980    3.3950   -0.9980 c3        1 MOL      0.068800
      8 I1          2.6190    4.6380   -0.7400 i         1 MOL     -0.254100
      9 H1         -1.9080   -4.4990    0.5710 hc        1 MOL      0.033200
     10 H2         -2.9600   -3.0710    0.6580 hc        1 MOL      0.033200
     11 H3         -2.3140   -3.6110   -0.9000 hc        1 MOL      0.033200
     12 H4         -0.0160   -3.0680   -0.1770 hc        1 MOL      0.038600
     13 H5         -0.5990   -2.5560    1.4030 hc        1 MOL      0.038600
     14 H6         -1.9290   -0.7260    0.2620 hc        1 MOL      0.039500
     15 H7         -1.2890   -1.2730   -1.2840 hc        1 MOL      0.039500
     16 H8          1.0330   -0.7500   -0.5350 hc        1 MOL      0.041100
     17 H9          0.4190   -0.2100    1.0300 hc        1 MOL      0.041100
     18 H10        -0.9410    1.5560   -0.1040 hc        1 MOL      0.041500
     19 H11        -0.3240    1.0260   -1.6710 hc        1 MOL      0.041500
     20 H12         2.0130    1.5410   -0.9240 hc        1 MOL      0.053600
     21 H13         1.3960    2.0710    0.6410 hc        1 MOL      0.053600
     22 H14         0.0400    3.8580   -0.4970 h1        1 MOL      0.071700
     23 H15         0.6570    3.3270   -2.0640 h1        1 MOL      0.071700
@<TRIPOS>BOND
     1    1    2 1   
     2    2    3 1   
     3    3    4 1   
     4    4    5 1   
     5    5    6 1   
     6    6    7 1   
     7    7    8 1   
     8    1    9 1   
     9    1   10 1   
    10    1   11 1   
    11    2   12 1   
    12    2   13 1   
    13    3   14 1   
    14    3   15 1   
    15    4   16 1   
    16    4   17 1   
    17    5   18 1   
    18    5   19 1   
    19    6   20 1   
    20    6   21 1   
    21    7   22 1   
    22    7   23 1   
@<TRIPOS>SUBSTRUCTURE
     1 MOL         1 TEMP              0 ****  ****    0 ROOT
