@<TRIPOS>MOLECULE
dimethyl
   13    12     1     0     0
SMALL
No Charge or Current Charge


@<TRIPOS>ATOM
      1 C1          0.9060    0.5940   -0.1920 c3        1 MOL      0.146100
      2 O1          1.0190    1.5710    0.8310 os        1 MOL     -0.541100
      3 S1          2.3590    2.5050    0.8880 s6        1 MOL      1.816900
      4 O2          2.4490    3.2410   -0.3600 o         1 MOL     -0.676900
      5 O3          3.4630    1.6800    1.3420 o         1 MOL     -0.676900
      6 O4          1.9980    3.5680    2.0770 os        1 MOL     -0.541100
      7 C2          2.9500    4.5630    2.4210 c3        1 MOL      0.146100
      8 H1         -0.0430    0.0620   -0.0860 h1        1 MOL      0.054500
      9 H2          1.7390   -0.1090   -0.1190 h1        1 MOL      0.054500
     10 H3          0.9350    1.0910   -1.1640 h1        1 MOL      0.054500
     11 H4          2.5510    5.1820    3.2270 h1        1 MOL      0.054500
     12 H5          3.1650    5.1760    1.5440 h1        1 MOL      0.054500
     13 H6          3.8650    4.0730    2.7580 h1        1 MOL      0.054500
@<TRIPOS>BOND
     1    1    2 1   
     2    2    3 1   
     3    3    4 2   
     4    3    5 2   
     5    3    6 1   
     6    6    7 1   
     7    1    8 1   
     8    1    9 1   
     9    1   10 1   
    10    7   11 1   
    11    7   12 1   
    12    7   13 1   
@<TRIPOS>SUBSTRUCTURE
     1 MOL         1 TEMP              0 ****  ****    0 ROOT
