@<TRIPOS>MOLECULE
1-chloroheptane
   23    22     1     0     0
SMALL
No Charge or Current Charge


@<TRIPOS>ATOM
      1 C1         -3.6200    0.6140    0.4880 c3        1 MOL     -0.092000
      2 C2         -2.1430    0.7080    0.8330 c3        1 MOL     -0.079500
      3 C3         -1.2700    0.1230   -0.2770 c3        1 MOL     -0.078700
      4 C4          0.2170    0.2190    0.0740 c3        1 MOL     -0.077300
      5 C5          1.0870   -0.3670   -1.0400 c3        1 MOL     -0.079300
      6 C6          2.5880   -0.2960   -0.7400 c3        1 MOL     -0.092300
      7 C7          3.4490   -0.8810   -1.8520 c3        1 MOL      0.039700
      8 Cl1         5.1730   -0.7610   -1.4250 cl        1 MOL     -0.200800
      9 H1         -4.2260    1.0380    1.2950 hc        1 MOL      0.033400
     10 H2         -3.8440    1.1660   -0.4300 hc        1 MOL      0.033400
     11 H3         -3.9240   -0.4280    0.3460 hc        1 MOL      0.033400
     12 H4         -1.9580    0.1740    1.7730 hc        1 MOL      0.038600
     13 H5         -1.8780    1.7580    1.0000 hc        1 MOL      0.038600
     14 H6         -1.4620    0.6580   -1.2150 hc        1 MOL      0.038800
     15 H7         -1.5400   -0.9270   -0.4430 hc        1 MOL      0.038800
     16 H8          0.3980   -0.3150    1.0130 hc        1 MOL      0.041400
     17 H9          0.4880    1.2690    0.2380 hc        1 MOL      0.041400
     18 H10         0.8990    0.1840   -1.9690 hc        1 MOL      0.041200
     19 H11         0.7990   -1.4090   -1.2260 hc        1 MOL      0.041200
     20 H12         2.8540    0.7580   -0.5910 hc        1 MOL      0.056200
     21 H13         2.7960   -0.8110    0.2060 hc        1 MOL      0.056200
     22 H14         3.2320   -1.9400   -2.0160 h1        1 MOL      0.063700
     23 H15         3.3010   -0.3420   -2.7920 h1        1 MOL      0.063700
@<TRIPOS>BOND
     1    1    2 1   
     2    2    3 1   
     3    3    4 1   
     4    4    5 1   
     5    5    6 1   
     6    6    7 1   
     7    7    8 1   
     8    1    9 1   
     9    1   10 1   
    10    1   11 1   
    11    2   12 1   
    12    2   13 1   
    13    3   14 1   
    14    3   15 1   
    15    4   16 1   
    16    4   17 1   
    17    5   18 1   
    18    5   19 1   
    19    6   20 1   
    20    6   21 1   
    21    7   22 1   
    22    7   23 1   
@<TRIPOS>SUBSTRUCTURE
     1 MOL         1 TEMP              0 ****  ****    0 ROOT
