@<TRIPOS>MOLECULE
1-propylsulfanylpropane
   21    20     1     0     0
SMALL
No Charge or Current Charge


@<TRIPOS>ATOM
      1 C1         -0.3680   -0.3230    3.3290 c3        1 MOL     -0.093300
      2 C2          1.1200   -0.3490    3.6470 c3        1 MOL     -0.069800
      3 C3          1.8810   -1.2100    2.6450 c3        1 MOL     -0.009100
      4 S1          3.6530   -1.2290    3.0400 ss        1 MOL     -0.311000
      5 C4          4.2090   -2.3030    1.6970 c3        1 MOL     -0.009100
      6 C5          5.7200   -2.5160    1.7640 c3        1 MOL     -0.069800
      7 C6          6.2040   -3.4190    0.6380 c3        1 MOL     -0.093200
      8 H1         -0.9130    0.2950    4.0490 hc        1 MOL      0.035200
      9 H2         -0.5340    0.0920    2.3300 hc        1 MOL      0.035200
     10 H3         -0.7910   -1.3320    3.3520 hc        1 MOL      0.035200
     11 H4          1.2550   -0.7370    4.6640 hc        1 MOL      0.054500
     12 H5          1.5000    0.6790    3.6340 hc        1 MOL      0.054500
     13 H6          1.5110   -2.2400    2.6610 h1        1 MOL      0.056500
     14 H7          1.7570   -0.8210    1.6290 h1        1 MOL      0.056500
     15 H8          3.9310   -1.8460    0.7390 h1        1 MOL      0.056500
     16 H9          3.6850   -3.2640    1.7710 h1        1 MOL      0.056500
     17 H10         6.2430   -1.5540    1.6920 hc        1 MOL      0.054500
     18 H11         5.9970   -2.9700    2.7230 hc        1 MOL      0.054500
     19 H12         7.2870   -3.5670    0.6920 hc        1 MOL      0.035200
     20 H13         5.7230   -4.3990    0.7060 hc        1 MOL      0.035200
     21 H14         5.9630   -2.9890   -0.3400 hc        1 MOL      0.035200
@<TRIPOS>BOND
     1    1    2 1   
     2    2    3 1   
     3    3    4 1   
     4    4    5 1   
     5    5    6 1   
     6    6    7 1   
     7    1    8 1   
     8    1    9 1   
     9    1   10 1   
    10    2   11 1   
    11    2   12 1   
    12    3   13 1   
    13    3   14 1   
    14    5   15 1   
    15    5   16 1   
    16    6   17 1   
    17    6   18 1   
    18    7   19 1   
    19    7   20 1   
    20    7   21 1   
@<TRIPOS>SUBSTRUCTURE
     1 MOL         1 TEMP              0 ****  ****    0 ROOT
