@<TRIPOS>MOLECULE
bromobenzene
   12    12     1     0     0
SMALL
No Charge or Current Charge


@<TRIPOS>ATOM
      1 C1          1.8850   -1.0360   -0.1120 ca        1 MOL     -0.117300
      2 C2          2.9210   -1.6310    0.6080 ca        1 MOL     -0.130300
      3 C3          2.8780   -1.6520    2.0020 ca        1 MOL     -0.103500
      4 C4          1.8000   -1.0790    2.6760 ca        1 MOL     -0.026100
      5 C5          0.7640   -0.4840    1.9550 ca        1 MOL     -0.103500
      6 C6          0.8070   -0.4630    0.5610 ca        1 MOL     -0.130300
      7 Br1         1.7420   -1.1080    4.5640 br        1 MOL     -0.091100
      8 H1          1.9180   -1.0200   -1.1980 ha        1 MOL      0.135300
      9 H2          3.7610   -2.0770    0.0840 ha        1 MOL      0.137400
     10 H3          3.6930   -2.1190    2.5490 ha        1 MOL      0.146000
     11 H4         -0.0840   -0.0330    2.4640 ha        1 MOL      0.146000
     12 H5          0.0000    0.0000   -0.0000 ha        1 MOL      0.137400
@<TRIPOS>BOND
     1    1    6 ar  
     2    1    2 ar  
     3    2    3 ar  
     4    3    4 ar  
     5    4    5 ar  
     6    5    6 ar  
     7    4    7 1   
     8    1    8 1   
     9    2    9 1   
    10    3   10 1   
    11    5   11 1   
    12    6   12 1   
@<TRIPOS>SUBSTRUCTURE
     1 MOL         1 TEMP              0 ****  ****    0 ROOT
