@<TRIPOS>MOLECULE
3-chlorophenol
   13    13     1     0     0
SMALL
No Charge or Current Charge


@<TRIPOS>ATOM
      1 C1          1.8850   -1.0360   -0.1120 ca        1 MOL     -0.082200
      2 C2          2.9210   -1.6310    0.6080 ca        1 MOL     -0.215300
      3 C3          2.8780   -1.6520    2.0020 ca        1 MOL      0.134000
      4 C4          1.8000   -1.0790    2.6760 ca        1 MOL     -0.153700
      5 C5          0.7640   -0.4840    1.9550 ca        1 MOL      0.049500
      6 C6          0.8070   -0.4630    0.5610 ca        1 MOL     -0.160600
      7 Cl1        -0.5670    0.2240    2.7850 cl        1 MOL     -0.089500
      8 O1          3.8890   -2.2320    2.7050 oh        1 MOL     -0.493700
      9 H1          1.9190   -1.0200   -1.1980 ha        1 MOL      0.140200
     10 H2          3.7590   -2.0760    0.0780 ha        1 MOL      0.135200
     11 H3          1.7740   -1.0990    3.7630 ha        1 MOL      0.165300
     12 H4          0.0070   -0.0020   -0.0140 ha        1 MOL      0.148900
     13 H5          4.5620   -2.5830    2.1000 ho        1 MOL      0.421700
@<TRIPOS>BOND
     1    1    6 ar  
     2    1    2 ar  
     3    2    3 ar  
     4    3    4 ar  
     5    4    5 ar  
     6    5    6 ar  
     7    5    7 1   
     8    3    8 1   
     9    1    9 1   
    10    2   10 1   
    11    4   11 1   
    12    6   12 1   
    13    8   13 1   
@<TRIPOS>SUBSTRUCTURE
     1 MOL         1 TEMP              0 ****  ****    0 ROOT
