@<TRIPOS>MOLECULE
1,3,5-trichloro-2-phenyl-benzene
   22    23     1     0     0
SMALL
No Charge or Current Charge


@<TRIPOS>ATOM
      1 C1          1.8850   -1.0360   -0.1120 ca        1 MOL     -0.119500
      2 C2          2.9210   -1.6310    0.6080 ca        1 MOL     -0.131900
      3 C3          2.8780   -1.6520    2.0020 ca        1 MOL     -0.099500
      4 C4          1.8000   -1.0790    2.6760 cp        1 MOL     -0.055300
      5 C5          0.7640   -0.4840    1.9550 ca        1 MOL     -0.099500
      6 C6          0.8070   -0.4630    0.5610 ca        1 MOL     -0.131900
      7 C7          1.7550   -1.1010    4.1220 cp        1 MOL     -0.026000
      8 C8          1.1500   -2.1680    4.7840 ca        1 MOL      0.041100
      9 C9          1.1060   -2.1900    6.1780 ca        1 MOL     -0.126000
     10 C10         1.6680   -1.1430    6.9100 ca        1 MOL      0.031000
     11 C11         2.2730   -0.0750    6.2470 ca        1 MOL     -0.126000
     12 C12         2.3170   -0.0540    4.8530 ca        1 MOL      0.041100
     13 Cl1         3.0820    1.2990    4.0910 cl        1 MOL     -0.065800
     14 Cl2         1.6160   -1.1710    8.6300 cl        1 MOL     -0.076700
     15 Cl3         0.4350   -3.4970    3.9360 cl        1 MOL     -0.065800
     16 H1          1.9170   -1.0210   -1.1980 ha        1 MOL      0.131900
     17 H2          3.7600   -2.0790    0.0840 ha        1 MOL      0.134500
     18 H3          3.6930   -2.1200    2.5500 ha        1 MOL      0.139100
     19 H4         -0.0840   -0.0330    2.4660 ha        1 MOL      0.139100
     20 H5         -0.0010   -0.0020    0.0000 ha        1 MOL      0.134500
     21 H6          0.6360   -3.0220    6.6980 ha        1 MOL      0.165800
     22 H7          2.7110    0.7390    6.8200 ha        1 MOL      0.165800
@<TRIPOS>BOND
     1    1    6 ar  
     2    1    2 ar  
     3    2    3 ar  
     4    3    4 ar  
     5    4    5 ar  
     6    5    6 ar  
     7    4    7 1   
     8    7   12 ar  
     9    7    8 ar  
    10    8    9 ar  
    11    9   10 ar  
    12   10   11 ar  
    13   11   12 ar  
    14   12   13 1   
    15   10   14 1   
    16    8   15 1   
    17    1   16 1   
    18    2   17 1   
    19    3   18 1   
    20    5   19 1   
    21    6   20 1   
    22    9   21 1   
    23   11   22 1   
@<TRIPOS>SUBSTRUCTURE
     1 MOL         1 TEMP              0 ****  ****    0 ROOT
