@<TRIPOS>MOLECULE
1,1,2-trichloro-1,2,2-trifluoro-ethane
    8     7     1     0     0
SMALL
No Charge or Current Charge


@<TRIPOS>ATOM
      1 C1          0.7260   -0.0220    0.2800 c3        1 MOL      0.495600
      2 C2         -0.6580   -0.0550   -0.3580 c3        1 MOL      0.340100
      3 F1         -0.5720   -0.8220   -1.4830 f         1 MOL     -0.157600
      4 Cl1        -1.2020    1.5700   -0.8480 cl        1 MOL     -0.093600
      5 Cl2        -1.8670   -0.8020    0.7180 cl        1 MOL     -0.093600
      6 F2          1.1050   -1.2900    0.5930 f         1 MOL     -0.182900
      7 F3          1.6300    0.4240   -0.6340 f         1 MOL     -0.182900
      8 Cl3         0.8360    0.9880    1.7370 cl        1 MOL     -0.125000
@<TRIPOS>BOND
     1    1    2 1   
     2    2    3 1   
     3    2    4 1   
     4    2    5 1   
     5    1    6 1   
     6    1    7 1   
     7    1    8 1   
@<TRIPOS>SUBSTRUCTURE
     1 MOL         1 TEMP              0 ****  ****    0 ROOT
