@<TRIPOS>MOLECULE
1,4-dimethylcyclohexane
   24    24     1     0     0
SMALL
No Charge or Current Charge


@<TRIPOS>ATOM
      1 C1         -0.6220   -2.5760    0.6710 c3        1 MOL     -0.089100
      2 C2          0.4200   -1.6680    1.3220 c3        1 MOL     -0.065000
      3 C3          0.8700   -0.5730    0.3460 c3        1 MOL     -0.072300
      4 C4          1.8750    0.3800    0.9910 c3        1 MOL     -0.072300
      5 C5          1.3240    0.9950    2.2840 c3        1 MOL     -0.065000
      6 C6          0.8740   -0.1000    3.2590 c3        1 MOL     -0.072300
      7 C7         -0.1310   -1.0530    2.6150 c3        1 MOL     -0.072300
      8 C8          2.3640    1.9030    2.9350 c3        1 MOL     -0.089100
      9 H1         -0.2280   -3.0140   -0.2510 hc        1 MOL      0.033000
     10 H2         -0.9000   -3.3900    1.3470 hc        1 MOL      0.033000
     11 H3         -1.5250   -2.0100    0.4240 hc        1 MOL      0.033000
     12 H4          1.2920   -2.2850    1.5770 hc        1 MOL      0.045600
     13 H5          1.3230   -1.0280   -0.5420 hc        1 MOL      0.038500
     14 H6         -0.0000   -0.0000    0.0000 hc        1 MOL      0.038500
     15 H7          2.8040   -0.1650    1.2020 hc        1 MOL      0.038500
     16 H8          2.1280    1.1730    0.2780 hc        1 MOL      0.038500
     17 H9          0.4510    1.6100    2.0290 hc        1 MOL      0.045600
     18 H10         1.7440   -0.6740    3.6040 hc        1 MOL      0.038500
     19 H11         0.4210    0.3540    4.1480 hc        1 MOL      0.038500
     20 H12        -0.3840   -1.8470    3.3270 hc        1 MOL      0.038500
     21 H13        -1.0600   -0.5080    2.4030 hc        1 MOL      0.038500
     22 H14         1.9590    2.3320    3.8500 hc        1 MOL      0.033000
     23 H15         2.6300    2.7080    2.2520 hc        1 MOL      0.033000
     24 H16         3.2570    1.3290    3.1750 hc        1 MOL      0.033000
@<TRIPOS>BOND
     1    1    2 1   
     2    2    7 1   
     3    2    3 1   
     4    3    4 1   
     5    4    5 1   
     6    5    6 1   
     7    6    7 1   
     8    5    8 1   
     9    1    9 1   
    10    1   10 1   
    11    1   11 1   
    12    2   12 1   
    13    3   13 1   
    14    3   14 1   
    15    4   15 1   
    16    4   16 1   
    17    5   17 1   
    18    6   18 1   
    19    6   19 1   
    20    7   20 1   
    21    7   21 1   
    22    8   22 1   
    23    8   23 1   
    24    8   24 1   
@<TRIPOS>SUBSTRUCTURE
     1 MOL         1 TEMP              0 ****  ****    0 ROOT
