@<TRIPOS>MOLECULE
(2S,5S)-2,5-dimethyltetrahydrofuran
   19    19     1     0     0
SMALL
No Charge or Current Charge


@<TRIPOS>ATOM
      1 C1          2.3400   -0.5600   -0.6330 c3        1 MOL     -0.098000
      2 C2          1.1660    0.1340    0.0300 c3        1 MOL      0.136800
      3 H1          1.5060    0.6530    0.9350 h1        1 MOL      0.042800
      4 C3          0.4380    1.1030   -0.8870 c3        1 MOL     -0.107500
      5 C4         -0.9470    1.1030   -0.2870 c3        1 MOL     -0.107500
      6 C5         -1.1150   -0.3590    0.0890 c3        1 MOL      0.136800
      7 H2         -1.4440   -0.9380   -0.7820 h1        1 MOL      0.042800
      8 O1          0.1930   -0.8410    0.4450 os        1 MOL     -0.423600
      9 C6         -2.0750   -0.5810    1.2420 c3        1 MOL     -0.097900
     10 H3          2.0160   -1.0830   -1.5380 hc        1 MOL      0.043400
     11 H4          3.1090    0.1670   -0.9110 hc        1 MOL      0.043400
     12 H5          2.7870   -1.2920    0.0470 hc        1 MOL      0.043400
     13 H6          0.9010    2.0930   -0.9110 hc        1 MOL      0.053600
     14 H7          0.3960    0.7190   -1.9130 hc        1 MOL      0.053600
     15 H8         -0.9640    1.7440    0.6040 hc        1 MOL      0.053600
     16 H9         -1.7190    1.4560   -0.9760 hc        1 MOL      0.053600
     17 H10        -2.1570   -1.6460    1.4680 hc        1 MOL      0.043400
     18 H11        -3.0670   -0.2010    0.9880 hc        1 MOL      0.043400
     19 H12        -1.7220   -0.0610    2.1350 hc        1 MOL      0.043400
@<TRIPOS>BOND
     1    1    2 1   
     2    2    3 1   
     3    2    8 1   
     4    2    4 1   
     5    4    5 1   
     6    5    6 1   
     7    6    7 1   
     8    6    8 1   
     9    6    9 1   
    10    1   10 1   
    11    1   11 1   
    12    1   12 1   
    13    4   13 1   
    14    4   14 1   
    15    5   15 1   
    16    5   16 1   
    17    9   17 1   
    18    9   18 1   
    19    9   19 1   
@<TRIPOS>SUBSTRUCTURE
     1 MOL         1 TEMP              0 ****  ****    0 ROOT
