@<TRIPOS>MOLECULE
1-methylpyrrole
   13    13     1     0     0
SMALL
No Charge or Current Charge


@<TRIPOS>ATOM
      1 C1         -0.2320   -0.5270    4.5820 c3        1 MOL      0.023600
      2 N1          0.2320   -0.2130    3.2490 na        1 MOL     -0.068900
      3 C2         -0.4890   -0.3990    2.0980 cc        1 MOL     -0.164800
      4 C3          0.2890    0.0200    1.0410 cd        1 MOL     -0.196500
      5 C4          1.5200    0.4730    1.5760 cd        1 MOL     -0.196500
      6 C5          1.4580    0.3170    2.9430 cc        1 MOL     -0.164800
      7 H1         -0.7320    0.3580    4.9820 h1        1 MOL      0.048100
      8 H2         -0.9250   -1.3710    4.5370 h1        1 MOL      0.048100
      9 H3          0.6240   -0.8000    5.2070 h1        1 MOL      0.048100
     10 H4         -1.4890   -0.8110    2.1250 h4        1 MOL      0.162200
     11 H5          0.0000    0.0000    0.0000 ha        1 MOL      0.149600
     12 H6          2.3610    0.8700    1.0260 ha        1 MOL      0.149600
     13 H7          2.1790    0.5390    3.7170 h4        1 MOL      0.162200
@<TRIPOS>BOND
     1    1    2 1   
     2    2    6 1   
     3    2    3 1   
     4    3    4 2   
     5    4    5 1   
     6    5    6 2   
     7    1    7 1   
     8    1    8 1   
     9    1    9 1   
    10    3   10 1   
    11    4   11 1   
    12    5   12 1   
    13    6   13 1   
@<TRIPOS>SUBSTRUCTURE
     1 MOL         1 TEMP              0 ****  ****    0 ROOT
