@<TRIPOS>MOLECULE
2-nitropropane
   13    12     1     0     0
SMALL
No Charge or Current Charge


@<TRIPOS>ATOM
      1 C1         -0.5140   -0.3860    0.8880 c3        1 MOL     -0.114700
      2 C2          0.4300   -0.4780    2.0740 c3        1 MOL     -0.046900
      3 C3          1.0240    0.8720    2.4400 c3        1 MOL     -0.114700
      4 N1          1.5280   -1.3830    1.7190 no        1 MOL      0.220500
      5 O1          2.2370   -1.0800    0.7410 o         1 MOL     -0.212100
      6 O2          1.6800   -2.4140    2.4020 o         1 MOL     -0.212100
      7 H1         -0.9300   -1.3670    0.6410 hc        1 MOL      0.063400
      8 H2         -1.3450    0.2980    1.0930 hc        1 MOL      0.063400
      9 H3          0.0130   -0.0060    0.0050 hc        1 MOL      0.063400
     10 H4         -0.0920   -0.9030    2.9370 h1        1 MOL      0.100000
     11 H5          1.6990    0.7760    3.2960 hc        1 MOL      0.063400
     12 H6          0.2380    1.5880    2.7020 hc        1 MOL      0.063400
     13 H7          1.6050    1.2890    1.6100 hc        1 MOL      0.063400
@<TRIPOS>BOND
     1    1    2 1   
     2    2    3 1   
     3    2    4 1   
     4    4    5 1   
     5    4    6 1   
     6    1    7 1   
     7    1    8 1   
     8    1    9 1   
     9    2   10 1   
    10    3   11 1   
    11    3   12 1   
    12    3   13 1   
@<TRIPOS>SUBSTRUCTURE
     1 MOL         1 TEMP              0 ****  ****    0 ROOT
