@<TRIPOS>MOLECULE
pentanoic
   17    16     1     0     0
SMALL
No Charge or Current Charge


@<TRIPOS>ATOM
      1 C1         -2.8890   -0.8640    1.4430 c3        1 MOL     -0.091800
      2 C2         -1.4440   -0.4110    1.5740 c3        1 MOL     -0.088500
      3 C3         -0.6040   -1.3070    2.4860 c3        1 MOL     -0.076600
      4 C4          0.8490   -0.8490    2.6140 c3        1 MOL     -0.180000
      5 C5          1.6480   -1.7570    3.5220 c         1 MOL      0.624400
      6 O1          1.2140   -2.7450    4.0980 o         1 MOL     -0.488800
      7 O2          2.9380   -1.3450    3.6240 oh        1 MOL     -0.581900
      8 H1         -3.4370   -0.1860    0.7810 hc        1 MOL      0.036300
      9 H2         -2.9580   -1.8690    1.0180 hc        1 MOL      0.036300
     10 H3         -3.3900   -0.8650    2.4170 hc        1 MOL      0.036300
     11 H4         -1.4330    0.6070    1.9810 hc        1 MOL      0.049800
     12 H5         -0.9870   -0.3590    0.5790 hc        1 MOL      0.049800
     13 H6         -1.0690   -1.3180    3.4800 hc        1 MOL      0.046000
     14 H7         -0.6360   -2.3410    2.1200 hc        1 MOL      0.046000
     15 H8          0.8780    0.1640    3.0320 hc        1 MOL      0.079700
     16 H9          1.3340   -0.8490    1.6330 hc        1 MOL      0.079700
     17 H10         3.1570   -0.5370    3.1120 ho        1 MOL      0.423400
@<TRIPOS>BOND
     1    1    2 1   
     2    2    3 1   
     3    3    4 1   
     4    4    5 1   
     5    5    6 2   
     6    5    7 1   
     7    1    8 1   
     8    1    9 1   
     9    1   10 1   
    10    2   11 1   
    11    2   12 1   
    12    3   13 1   
    13    3   14 1   
    14    4   15 1   
    15    4   16 1   
    16    7   17 1   
@<TRIPOS>SUBSTRUCTURE
     1 MOL         1 TEMP              0 ****  ****    0 ROOT
