@<TRIPOS>MOLECULE
methyl
   20    19     1     0     0
SMALL
No Charge or Current Charge


@<TRIPOS>ATOM
      1 C1          0.7040   -0.4120    0.7310 c3        1 MOL     -0.088500
      2 C2          1.9240   -1.0340    0.0390 c3        1 MOL     -0.091600
      3 C3          2.5940    0.0300   -0.8450 c3        1 MOL     -0.088500
      4 C4          1.4940   -2.2150   -0.8430 c3        1 MOL     -0.088500
      5 C5          2.9200   -1.5220    1.0970 c         1 MOL      0.633500
      6 O1          4.0730   -1.1200    1.2000 o         1 MOL     -0.539000
      7 O2          2.3400   -2.4610    1.9030 os        1 MOL     -0.438300
      8 C6          3.1760   -2.9930    2.9350 c3        1 MOL      0.124400
      9 H1          0.1990   -1.1440    1.3720 hc        1 MOL      0.047400
     10 H2          0.9950    0.4410    1.3550 hc        1 MOL      0.047400
     11 H3         -0.0340   -0.0530    0.0050 hc        1 MOL      0.047400
     12 H4          3.4730   -0.3760   -1.3590 hc        1 MOL      0.047400
     13 H5          2.9220    0.8910   -0.2510 hc        1 MOL      0.047400
     14 H6          1.9060    0.3980   -1.6150 hc        1 MOL      0.047400
     15 H7          2.3510   -2.6750   -1.3480 hc        1 MOL      0.047400
     16 H8          1.0030   -2.9940   -0.2510 hc        1 MOL      0.047400
     17 H9          0.7950   -1.8900   -1.6220 hc        1 MOL      0.047400
     18 H10         2.6060   -3.7240    3.5050 h1        1 MOL      0.050000
     19 H11         3.5050   -2.1760    3.5750 h1        1 MOL      0.050000
     20 H12         4.0340   -3.4700    2.4670 h1        1 MOL      0.050000
@<TRIPOS>BOND
     1    1    2 1   
     2    2    3 1   
     3    2    4 1   
     4    2    5 1   
     5    5    6 2   
     6    5    7 1   
     7    7    8 1   
     8    1    9 1   
     9    1   10 1   
    10    1   11 1   
    11    3   12 1   
    12    3   13 1   
    13    3   14 1   
    14    4   15 1   
    15    4   16 1   
    16    4   17 1   
    17    8   18 1   
    18    8   19 1   
    19    8   20 1   
@<TRIPOS>SUBSTRUCTURE
     1 MOL         1 TEMP              0 ****  ****    0 ROOT
