@<TRIPOS>MOLECULE
diethoxyphosphinothioylsulfanylmethylsulfanyl-diethoxy-thioxo-$l^{5}-phosphane
   41    40     1     0     0
SMALL
No Charge or Current Charge


@<TRIPOS>ATOM
      1 C1         -0.2580   -1.5440    4.1070 c3        1 MOL     -0.097400
      2 C2         -0.5990   -2.2230    2.7970 c3        1 MOL      0.134100
      3 O1          0.5970   -2.4550    2.0730 os        1 MOL     -0.479700
      4 P1          0.5490   -3.1800    0.6080 p5        1 MOL      0.828500
      5 S1         -0.2310   -4.9780    0.6910 s         1 MOL     -0.461400
      6 O2          2.1590   -3.2120    0.3200 os        1 MOL     -0.479700
      7 C3          2.6610   -3.7690   -0.8830 c3        1 MOL      0.134100
      8 C4          4.1720   -3.6660   -0.8830 c3        1 MOL     -0.097400
      9 S2         -0.2870   -1.7700   -0.7470 ss        1 MOL     -0.340300
     10 C5          0.8340   -0.3540   -0.7020 c3        1 MOL      0.286800
     11 S3          0.2950    0.9770   -1.8000 ss        1 MOL     -0.340300
     12 P2          1.7340    2.5350   -1.6050 p5        1 MOL      0.828500
     13 S4          1.4860    4.1710   -2.6580 s         1 MOL     -0.461400
     14 O3          3.2100    1.8700   -1.8270 os        1 MOL     -0.479700
     15 C6          3.5270    1.2260   -3.0500 c3        1 MOL      0.134100
     16 C7          4.9480    0.7060   -2.9810 c3        1 MOL     -0.097400
     17 O4          1.8330    2.9090   -0.0160 os        1 MOL     -0.479700
     18 C8          0.6970    3.3700    0.6960 c3        1 MOL      0.134100
     19 C9          1.0870    3.6330    2.1350 c3        1 MOL     -0.097400
     20 H1         -1.1610   -1.3490    4.6920 hc        1 MOL      0.057700
     21 H2          0.4200   -2.1670    4.6990 hc        1 MOL      0.057700
     22 H3          0.2570   -0.5950    3.9270 hc        1 MOL      0.057700
     23 H4         -1.2580   -1.5880    2.1960 h1        1 MOL      0.067300
     24 H5         -1.0940   -3.1810    2.9790 h1        1 MOL      0.067300
     25 H6          2.3490   -4.8170   -0.9450 h1        1 MOL      0.067300
     26 H7          2.2400   -3.2210   -1.7310 h1        1 MOL      0.067300
     27 H8          4.5930   -4.0880   -1.8000 hc        1 MOL      0.057700
     28 H9          4.4870   -2.6200   -0.7990 hc        1 MOL      0.057700
     29 H10         4.5950   -4.1960   -0.0230 hc        1 MOL      0.057700
     30 H11         1.8290   -0.6850   -1.0110 h2        1 MOL      0.100600
     31 H12         0.9050    0.0280    0.3190 h2        1 MOL      0.100600
     32 H13         2.8260    0.4000   -3.2070 h1        1 MOL      0.067300
     33 H14         3.4220    1.9450   -3.8680 h1        1 MOL      0.067300
     34 H15         5.2260    0.2020   -3.9110 hc        1 MOL      0.057700
     35 H16         5.6500    1.5270   -2.8010 hc        1 MOL      0.057700
     36 H17         5.0620    0.0030   -2.1500 hc        1 MOL      0.057700
     37 H18         0.3320    4.2880    0.2240 h1        1 MOL      0.067300
     38 H19        -0.0870    2.6070    0.6450 h1        1 MOL      0.067300
     39 H20         0.2310    3.9910    2.7140 hc        1 MOL      0.057700
     40 H21         1.4730    2.7220    2.6030 hc        1 MOL      0.057700
     41 H22         1.8860    4.3800    2.1870 hc        1 MOL      0.057700
@<TRIPOS>BOND
     1    1    2 1   
     2    2    3 1   
     3    3    4 1   
     4    4    5 2   
     5    4    6 1   
     6    6    7 1   
     7    7    8 1   
     8    4    9 1   
     9    9   10 1   
    10   10   11 1   
    11   11   12 1   
    12   12   13 2   
    13   12   14 1   
    14   14   15 1   
    15   15   16 1   
    16   12   17 1   
    17   17   18 1   
    18   18   19 1   
    19    1   20 1   
    20    1   21 1   
    21    1   22 1   
    22    2   23 1   
    23    2   24 1   
    24    7   25 1   
    25    7   26 1   
    26    8   27 1   
    27    8   28 1   
    28    8   29 1   
    29   10   30 1   
    30   10   31 1   
    31   15   32 1   
    32   15   33 1   
    33   16   34 1   
    34   16   35 1   
    35   16   36 1   
    36   18   37 1   
    37   18   38 1   
    38   19   39 1   
    39   19   40 1   
    40   19   41 1   
@<TRIPOS>SUBSTRUCTURE
     1 MOL         1 TEMP              0 ****  ****    0 ROOT
