@<TRIPOS>MOLECULE
5-amino-4-chloro-2-phenyl-pyridazin-3-one
   23    24     1     0     0
SMALL
No Charge or Current Charge


@<TRIPOS>ATOM
      1 C1          6.0300    0.7040   -6.7360 ca        1 MOL     -0.131200
      2 C2          6.3140   -0.1390   -5.6610 ca        1 MOL     -0.125400
      3 C3          5.3930   -0.2800   -4.6230 ca        1 MOL     -0.118700
      4 C4          4.1870    0.4210   -4.6600 ca        1 MOL      0.056500
      5 C5          3.9030    1.2630   -5.7360 ca        1 MOL     -0.118700
      6 C6          4.8240    1.4040   -6.7730 ca        1 MOL     -0.125400
      7 N1          3.2340    0.2750   -3.5870 n         1 MOL     -0.118500
      8 C7          1.8450    0.3730   -3.7330 c         1 MOL      0.707800
      9 O1          1.2400    0.5130   -4.7960 o         1 MOL     -0.593800
     10 C8          1.0400    0.2700   -2.4780 cc        1 MOL     -0.212200
     11 C9          1.6030    0.0360   -1.2910 cd        1 MOL      0.139000
     12 C10         3.0630   -0.1060   -1.3400 cd        1 MOL      0.301600
     13 N2          3.8180    0.0040   -2.3780 nc        1 MOL     -0.393500
     14 N3          1.0060   -0.0890   -0.0750 nh        1 MOL     -0.848100
     15 Cl1        -0.6730    0.4610   -2.6330 cl        1 MOL     -0.062600
     16 H1          6.7470    0.8130   -7.5440 ha        1 MOL      0.134300
     17 H2          7.2520   -0.6850   -5.6330 ha        1 MOL      0.135600
     18 H3          5.6250   -0.9390   -3.7900 ha        1 MOL      0.155700
     19 H4          2.9670    1.8140   -5.7760 ha        1 MOL      0.155700
     20 H5          4.6020    2.0590   -7.6110 ha        1 MOL      0.135600
     21 H6          3.5540   -0.3250   -0.3770 h4        1 MOL      0.051200
     22 H7          1.5760   -0.2660    0.7260 hn        1 MOL      0.437500
     23 H8          0.0130   -0.0000   -0.0150 hn        1 MOL      0.437500
@<TRIPOS>BOND
     1    1    6 ar  
     2    1    2 ar  
     3    2    3 ar  
     4    3    4 ar  
     5    4    5 ar  
     6    5    6 ar  
     7    4    7 1   
     8    7   13 1   
     9    7    8 1   
    10    8    9 2   
    11    8   10 1   
    12   10   11 2   
    13   11   12 1   
    14   12   13 2   
    15   11   14 1   
    16   10   15 1   
    17    1   16 1   
    18    2   17 1   
    19    3   18 1   
    20    5   19 1   
    21    6   20 1   
    22   12   21 1   
    23   14   22 1   
    24   14   23 1   
@<TRIPOS>SUBSTRUCTURE
     1 MOL         1 TEMP              0 ****  ****    0 ROOT
