@<TRIPOS>MOLECULE
but-1-ene
   12    11     1     0     0
SMALL
No Charge or Current Charge


@<TRIPOS>ATOM
      1 C1          4.0770   -1.5620    0.7360 c3        1 MOL     -0.088100
      2 C2          2.9340   -1.8740   -0.2180 c3        1 MOL     -0.054300
      3 C3          1.9490   -0.7460   -0.2810 c2        1 MOL     -0.162400
      4 C4          0.8850   -0.6360    0.5220 c2        1 MOL     -0.223900
      5 H1          4.7830   -2.3970    0.7660 hc        1 MOL      0.034500
      6 H2          3.7080   -1.3930    1.7530 hc        1 MOL      0.034500
      7 H3          4.6250   -0.6680    0.4180 hc        1 MOL      0.034500
      8 H4          2.4470   -2.8050    0.0960 hc        1 MOL      0.043900
      9 H5          3.3360   -2.0470   -1.2230 hc        1 MOL      0.043900
     10 H6          2.1130    0.0190   -1.0360 ha        1 MOL      0.117300
     11 H7          0.1970    0.1980    0.4410 ha        1 MOL      0.110100
     12 H8          0.6870   -1.3890    1.2770 ha        1 MOL      0.110100
@<TRIPOS>BOND
     1    1    2 1   
     2    2    3 1   
     3    3    4 2   
     4    1    5 1   
     5    1    6 1   
     6    1    7 1   
     7    2    8 1   
     8    2    9 1   
     9    3   10 1   
    10    4   11 1   
    11    4   12 1   
@<TRIPOS>SUBSTRUCTURE
     1 MOL         1 TEMP              0 ****  ****    0 ROOT
