@<TRIPOS>MOLECULE
(E)-1,2-dichloroethylene
    6     5     1     0     0
SMALL
No Charge or Current Charge


@<TRIPOS>ATOM
      1 C1         -0.6310    0.0860   -0.1910 c2        1 MOL     -0.070100
      2 C2          0.6320   -0.0860    0.1910 c2        1 MOL     -0.070000
      3 Cl1         1.2350    0.5010    1.6820 cl        1 MOL     -0.094900
      4 Cl2        -1.2350   -0.5000   -1.6820 cl        1 MOL     -0.094900
      5 H1         -1.3860    0.6000    0.3890 h4        1 MOL      0.165000
      6 H2          1.3860   -0.6010   -0.3890 h4        1 MOL      0.165000
@<TRIPOS>BOND
     1    1    2 2   
     2    2    3 1   
     3    1    4 1   
     4    1    5 1   
     5    2    6 1   
@<TRIPOS>SUBSTRUCTURE
     1 MOL         1 TEMP              0 ****  ****    0 ROOT
