@<TRIPOS>MOLECULE
1,2-bis(trifluoromethyl)benzene
   18    18     1     0     0
SMALL
No Charge or Current Charge


@<TRIPOS>ATOM
      1 C1          1.8850   -1.0360   -0.1120 ca        1 MOL     -0.105100
      2 C2          2.9210   -1.6310    0.6080 ca        1 MOL     -0.105000
      3 C3          2.8780   -1.6520    2.0020 ca        1 MOL     -0.093400
      4 C4          1.8000   -1.0790    2.6760 ca        1 MOL     -0.117500
      5 C5          0.7640   -0.4840    1.9550 ca        1 MOL     -0.117500
      6 C6          0.8070   -0.4630    0.5610 ca        1 MOL     -0.093400
      7 C7         -0.4010    0.1370    2.6540 c3        1 MOL      0.686200
      8 F1         -0.3280    0.0530    4.0150 f         1 MOL     -0.227200
      9 F2         -0.5520    1.4660    2.3850 f         1 MOL     -0.227200
     10 F3         -1.5870   -0.4460    2.3130 f         1 MOL     -0.227200
     11 C8          1.7760   -1.1130    4.1680 c3        1 MOL      0.686200
     12 F4          2.8630   -1.7300    4.7170 f         1 MOL     -0.227200
     13 F5          1.7410    0.1250    4.7420 f         1 MOL     -0.227200
     14 F6          0.6900   -1.7770    4.6590 f         1 MOL     -0.227200
     15 H1          1.9180   -1.0210   -1.1980 ha        1 MOL      0.150400
     16 H2          3.7600   -2.0780    0.0840 ha        1 MOL      0.150400
     17 H3          3.6900   -2.1180    2.5540 ha        1 MOL      0.161100
     18 H4          0.0040   -0.0020   -0.0100 ha        1 MOL      0.161100
@<TRIPOS>BOND
     1    1    6 ar  
     2    1    2 ar  
     3    2    3 ar  
     4    3    4 ar  
     5    4    5 ar  
     6    5    6 ar  
     7    5    7 1   
     8    7    8 1   
     9    7    9 1   
    10    7   10 1   
    11    4   11 1   
    12   11   12 1   
    13   11   13 1   
    14   11   14 1   
    15    1   15 1   
    16    2   16 1   
    17    3   17 1   
    18    6   18 1   
@<TRIPOS>SUBSTRUCTURE
     1 MOL         1 TEMP              0 ****  ****    0 ROOT
