@<TRIPOS>MOLECULE
2-methylthiophene
   12    12     1     0     0
SMALL
No Charge or Current Charge


@<TRIPOS>ATOM
      1 C1         -1.8290   -2.2090   -0.4540 c3        1 MOL     -0.024400
      2 C2         -1.3500   -1.0950   -1.2990 cc        1 MOL     -0.094700
      3 C3         -0.4680   -0.0880   -0.9720 cd        1 MOL     -0.158300
      4 C4         -0.2530    0.8090   -2.0580 cd        1 MOL     -0.154200
      5 C5         -0.9780    0.4540   -3.1740 cc        1 MOL     -0.166100
      6 S1         -1.9150   -0.9560   -2.9100 ss        1 MOL     -0.015600
      7 H1         -1.1680   -3.0740   -0.5640 hc        1 MOL      0.046900
      8 H2         -1.8560   -1.9170    0.6010 hc        1 MOL      0.046900
      9 H3         -2.8460   -2.5040   -0.7340 hc        1 MOL      0.046900
     10 H4          0.0020    0.0050   -0.0010 ha        1 MOL      0.152000
     11 H5          0.4000    1.6710   -2.0230 ha        1 MOL      0.151400
     12 H6         -1.0030    0.9540   -4.1310 h4        1 MOL      0.169200
@<TRIPOS>BOND
     1    1    2 1   
     2    2    6 1   
     3    2    3 2   
     4    3    4 1   
     5    4    5 2   
     6    5    6 1   
     7    1    7 1   
     8    1    8 1   
     9    1    9 1   
    10    3   10 1   
    11    4   11 1   
    12    5   12 1   
@<TRIPOS>SUBSTRUCTURE
     1 MOL         1 TEMP              0 ****  ****    0 ROOT
