@<TRIPOS>MOLECULE
2-isopropoxypropane
   21    20     1     0     0
SMALL
No Charge or Current Charge


@<TRIPOS>ATOM
      1 C1          0.2250   -0.0420    1.7540 c3        1 MOL     -0.106800
      2 C2          1.3530    0.9190    1.4130 c3        1 MOL      0.137300
      3 C3          2.1170    0.4790    0.1730 c3        1 MOL     -0.106800
      4 O1          0.8120    2.2180    1.1940 os        1 MOL     -0.416900
      5 C4          1.7300    3.2330    1.5730 c3        1 MOL      0.137300
      6 C5          1.5290    4.4540    0.6860 c3        1 MOL     -0.106800
      7 C6          1.5330    3.5680    3.0460 c3        1 MOL     -0.106800
      8 H1         -0.3180    0.2840    2.6470 hc        1 MOL      0.042000
      9 H2         -0.4820   -0.1110    0.9210 hc        1 MOL      0.042000
     10 H3          0.6070   -1.0540    1.9270 hc        1 MOL      0.042000
     11 H4          2.0420    0.9900    2.2610 h1        1 MOL      0.032800
     12 H5          2.9260    1.1770   -0.0640 hc        1 MOL      0.042000
     13 H6          1.4430    0.4190   -0.6880 hc        1 MOL      0.042000
     14 H7          2.5450   -0.5210    0.3080 hc        1 MOL      0.042000
     15 H8          2.7420    2.8390    1.4230 h1        1 MOL      0.032800
     16 H9          2.2210    5.2590    0.9510 hc        1 MOL      0.042000
     17 H10         1.6850    4.1890   -0.3650 hc        1 MOL      0.042000
     18 H11         0.5040    4.8330    0.7660 hc        1 MOL      0.042000
     19 H12         2.2260    4.3480    3.3750 hc        1 MOL      0.042000
     20 H13         1.6920    2.6760    3.6620 hc        1 MOL      0.042000
     21 H14         0.5080    3.9050    3.2380 hc        1 MOL      0.042000
@<TRIPOS>BOND
     1    1    2 1   
     2    2    3 1   
     3    2    4 1   
     4    4    5 1   
     5    5    6 1   
     6    5    7 1   
     7    1    8 1   
     8    1    9 1   
     9    1   10 1   
    10    2   11 1   
    11    3   12 1   
    12    3   13 1   
    13    3   14 1   
    14    5   15 1   
    15    6   16 1   
    16    6   17 1   
    17    6   18 1   
    18    7   19 1   
    19    7   20 1   
    20    7   21 1   
@<TRIPOS>SUBSTRUCTURE
     1 MOL         1 TEMP              0 ****  ****    0 ROOT
