@<TRIPOS>MOLECULE
2-nitrooxyethyl
   14    13     1     0     0
SMALL
No Charge or Current Charge


@<TRIPOS>ATOM
      1 C1         -2.1460   -0.1940   -0.1210 c3        1 MOL      0.124700
      2 C2         -0.8940    0.4510    0.4420 c3        1 MOL      0.124800
      3 O1         -0.8120    1.7920   -0.0250 os        1 MOL     -0.342900
      4 N1          0.3340    2.4890    0.4490 no        1 MOL      0.378700
      5 O2          1.1090    1.8780    1.1880 o         1 MOL     -0.169700
      6 O3          0.3920    3.6480    0.0380 o         1 MOL     -0.169700
      7 O4         -3.2830    0.5410    0.3170 os        1 MOL     -0.342900
      8 N2         -4.5160    0.0160   -0.1580 no        1 MOL      0.378700
      9 O5         -4.4710   -0.9870   -0.8750 o         1 MOL     -0.169700
     10 O6         -5.4910    0.6610    0.2280 o         1 MOL     -0.169700
     11 H1         -2.2510   -1.2250    0.2300 h1        1 MOL      0.089400
     12 H2         -2.1270   -0.1760   -1.2140 h1        1 MOL      0.089400
     13 H3          0.0050   -0.0800    0.1120 h1        1 MOL      0.089400
     14 H4         -0.9310    0.4690    1.5350 h1        1 MOL      0.089400
@<TRIPOS>BOND
     1    1    2 1   
     2    2    3 1   
     3    3    4 1   
     4    4    5 1   
     5    4    6 1   
     6    1    7 1   
     7    7    8 1   
     8    8    9 1   
     9    8   10 1   
    10    1   11 1   
    11    1   12 1   
    12    2   13 1   
    13    2   14 1   
@<TRIPOS>SUBSTRUCTURE
     1 MOL         1 TEMP              0 ****  ****    0 ROOT
