@<TRIPOS>MOLECULE
octan-2-one
   25    24     1     0     0
SMALL
No Charge or Current Charge


@<TRIPOS>ATOM
      1 C1         -5.2340    4.0320    0.5470 c3        1 MOL     -0.091700
      2 C2         -3.8030    4.0090    0.0360 c3        1 MOL     -0.079900
      3 C3         -3.5020    2.7210   -0.7310 c3        1 MOL     -0.078900
      4 C4         -2.0610    2.7020   -1.2440 c3        1 MOL     -0.076900
      5 C5         -1.7620    1.4110   -2.0110 c3        1 MOL     -0.074900
      6 C6         -0.3310    1.3610   -2.5370 c3        1 MOL     -0.178700
      7 C7         -0.0240    0.0880   -3.2980 c         1 MOL      0.561600
      8 O1         -0.8770   -0.7870   -3.4500 o         1 MOL     -0.533500
      9 C8          1.3580   -0.0610   -3.8790 c3        1 MOL     -0.203400
     10 H1         -5.4400    4.9570    1.0940 hc        1 MOL      0.033500
     11 H2         -5.4250    3.1870    1.2160 hc        1 MOL      0.033500
     12 H3         -5.9370    3.9690   -0.2900 hc        1 MOL      0.033500
     13 H4         -3.6390    4.8760   -0.6150 hc        1 MOL      0.037100
     14 H5         -3.1160    4.1060    0.8840 hc        1 MOL      0.037100
     15 H6         -3.6710    1.8570   -0.0770 hc        1 MOL      0.041400
     16 H7         -4.1950    2.6270   -1.5760 hc        1 MOL      0.041400
     17 H8         -1.3730    2.8000   -0.3950 hc        1 MOL      0.036600
     18 H9         -1.8930    3.5660   -1.8990 hc        1 MOL      0.036600
     19 H10        -1.9620    0.5470   -1.3680 hc        1 MOL      0.054100
     20 H11        -2.4470    1.3350   -2.8650 hc        1 MOL      0.054100
     21 H12        -0.1460    2.2060   -3.2100 hc        1 MOL      0.063300
     22 H13         0.3840    1.4550   -1.7110 hc        1 MOL      0.063300
     23 H14         2.0130   -0.5420   -3.1470 hc        1 MOL      0.063600
     24 H15         1.3180   -0.6770   -4.7800 hc        1 MOL      0.063600
     25 H16         1.7690    0.9250   -4.1120 hc        1 MOL      0.063600
@<TRIPOS>BOND
     1    1    2 1   
     2    2    3 1   
     3    3    4 1   
     4    4    5 1   
     5    5    6 1   
     6    6    7 1   
     7    7    8 2   
     8    7    9 1   
     9    1   10 1   
    10    1   11 1   
    11    1   12 1   
    12    2   13 1   
    13    2   14 1   
    14    3   15 1   
    15    3   16 1   
    16    4   17 1   
    17    4   18 1   
    18    5   19 1   
    19    5   20 1   
    20    6   21 1   
    21    6   22 1   
    22    9   23 1   
    23    9   24 1   
    24    9   25 1   
@<TRIPOS>SUBSTRUCTURE
     1 MOL         1 TEMP              0 ****  ****    0 ROOT
