@<TRIPOS>MOLECULE
chloro(fluoro)methane
    5     4     1     0     0
SMALL
No Charge or Current Charge


@<TRIPOS>ATOM
      1 C1          0.1090   -0.0110   -0.0650 c3        1 MOL      0.271600
      2 F1         -0.6740    0.0930   -1.1680 f         1 MOL     -0.213800
      3 Cl1        -0.8930    0.0730    1.3860 cl        1 MOL     -0.205300
      4 H1          0.8260    0.8130   -0.0610 h2        1 MOL      0.073700
      5 H2          0.6320   -0.9690   -0.0920 h2        1 MOL      0.073700
@<TRIPOS>BOND
     1    1    2 1   
     2    1    3 1   
     3    1    4 1   
     4    1    5 1   
@<TRIPOS>SUBSTRUCTURE
     1 MOL         1 TEMP              0 ****  ****    0 ROOT
