@<TRIPOS>MOLECULE
1,3,5-trichloro-2-(2,6-dichlorophenyl)benzene
   22    23     1     0     0
SMALL
No Charge or Current Charge


@<TRIPOS>ATOM
      1 C1          1.8850   -1.0360   -0.1120 ca        1 MOL     -0.104500
      2 C2          2.9210   -1.6310    0.6080 ca        1 MOL     -0.128700
      3 C3          2.8780   -1.6520    2.0020 ca        1 MOL      0.049600
      4 C4          1.8000   -1.0790    2.6760 cp        1 MOL     -0.038500
      5 C5          0.7640   -0.4840    1.9550 ca        1 MOL      0.049600
      6 C6          0.8070   -0.4630    0.5610 ca        1 MOL     -0.128700
      7 Cl1        -0.6020    0.2450    2.7290 cl        1 MOL     -0.071200
      8 C7          1.7550   -1.1010    4.1300 cp        1 MOL     -0.034600
      9 C8          1.1500   -2.1690    4.7930 ca        1 MOL      0.055700
     10 C9          1.1070   -2.1900    6.1870 ca        1 MOL     -0.126600
     11 C10         1.6690   -1.1440    6.9180 ca        1 MOL      0.038300
     12 C11         2.2740   -0.0760    6.2550 ca        1 MOL     -0.126600
     13 C12         2.3170   -0.0540    4.8610 ca        1 MOL      0.055700
     14 Cl2         3.0820    1.2990    4.0990 cl        1 MOL     -0.063200
     15 Cl3         1.6180   -1.1720    8.6380 cl        1 MOL     -0.075100
     16 Cl4         0.4350   -3.4980    3.9450 cl        1 MOL     -0.063200
     17 Cl5         4.1950   -2.4050    2.8370 cl        1 MOL     -0.071200
     18 H1          1.9180   -1.0200   -1.1980 ha        1 MOL      0.143800
     19 H2          3.7540   -2.0730    0.0670 ha        1 MOL      0.152900
     20 H3          0.0080   -0.0040   -0.0170 ha        1 MOL      0.152900
     21 H4          0.6370   -3.0220    6.7060 ha        1 MOL      0.166800
     22 H5          2.7120    0.7390    6.8290 ha        1 MOL      0.166800
@<TRIPOS>BOND
     1    1    6 ar  
     2    1    2 ar  
     3    2    3 ar  
     4    3    4 ar  
     5    4    5 ar  
     6    5    6 ar  
     7    5    7 1   
     8    4    8 1   
     9    8   13 ar  
    10    8    9 ar  
    11    9   10 ar  
    12   10   11 ar  
    13   11   12 ar  
    14   12   13 ar  
    15   13   14 1   
    16   11   15 1   
    17    9   16 1   
    18    3   17 1   
    19    1   18 1   
    20    2   19 1   
    21    6   20 1   
    22   10   21 1   
    23   12   22 1   
@<TRIPOS>SUBSTRUCTURE
     1 MOL         1 TEMP              0 ****  ****    0 ROOT
