@<TRIPOS>MOLECULE
hexanamide
   21    20     1     0     0
SMALL
No Charge or Current Charge


@<TRIPOS>ATOM
      1 C1          1.0700   -0.0690   -0.2230 c3        1 MOL     -0.092600
      2 C2          1.4100    0.7800   -1.4370 c3        1 MOL     -0.079600
      3 C3          2.8890    0.6630   -1.8060 c3        1 MOL     -0.079000
      4 C4          3.2250    1.5210   -3.0300 c3        1 MOL     -0.072500
      5 C5          4.6980    1.4240   -3.4220 c3        1 MOL     -0.147600
      6 C6          5.0630    2.2640   -4.6330 c         1 MOL      0.657100
      7 O1          4.2590    2.9450   -5.2620 o         1 MOL     -0.611100
      8 N1          6.3970    2.1560   -4.9630 n         1 MOL     -0.685800
      9 H1          0.0100    0.0200    0.0340 hc        1 MOL      0.032900
     10 H2          1.6580    0.2530    0.6420 hc        1 MOL      0.032900
     11 H3          1.2900   -1.1250   -0.4100 hc        1 MOL      0.032900
     12 H4          1.1610    1.8270   -1.2250 hc        1 MOL      0.041600
     13 H5          0.7890    0.4640   -2.2830 hc        1 MOL      0.041600
     14 H6          3.1320   -0.3860   -2.0170 hc        1 MOL      0.036500
     15 H7          3.5030    0.9690   -0.9510 hc        1 MOL      0.036500
     16 H8          2.9500    2.5660   -2.8390 hc        1 MOL      0.059300
     17 H9          2.6170    1.1820   -3.8780 hc        1 MOL      0.059300
     18 H10         4.9290    0.3820   -3.6760 hc        1 MOL      0.059800
     19 H11         5.3370    1.7080   -2.5780 hc        1 MOL      0.059800
     20 H12         6.7810    2.6640   -5.7530 hn        1 MOL      0.309100
     21 H13         7.0410    1.5730   -4.4380 hn        1 MOL      0.309100
@<TRIPOS>BOND
     1    1    2 1   
     2    2    3 1   
     3    3    4 1   
     4    4    5 1   
     5    5    6 1   
     6    6    7 2   
     7    6    8 1   
     8    1    9 1   
     9    1   10 1   
    10    1   11 1   
    11    2   12 1   
    12    2   13 1   
    13    3   14 1   
    14    3   15 1   
    15    4   16 1   
    16    4   17 1   
    17    5   18 1   
    18    5   19 1   
    19    8   20 1   
    20    8   21 1   
@<TRIPOS>SUBSTRUCTURE
     1 MOL         1 TEMP              0 ****  ****    0 ROOT
