@<TRIPOS>MOLECULE
heptane
   23    22     1     0     0
SMALL
No Charge or Current Charge


@<TRIPOS>ATOM
      1 C1          1.3990    1.0560   -1.8410 c3        1 MOL     -0.092400
      2 C2          1.4560   -0.4010   -1.4090 c3        1 MOL     -0.079500
      3 C3          2.6410   -0.7220   -0.4960 c3        1 MOL     -0.078500
      4 C4          2.6940   -2.1890   -0.0640 c3        1 MOL     -0.079000
      5 C5          3.8950   -2.4550    0.8460 c3        1 MOL     -0.078500
      6 C6          3.9500   -3.9200    1.2800 c3        1 MOL     -0.079500
      7 C7          5.1430   -4.1890    2.1840 c3        1 MOL     -0.092400
      8 H1          0.5330    1.2220   -2.4900 hc        1 MOL      0.032200
      9 H2          2.2980    1.3360   -2.3990 hc        1 MOL      0.032200
     10 H3          1.3010    1.7260   -0.9820 hc        1 MOL      0.032200
     11 H4          1.5300   -1.0270   -2.3060 hc        1 MOL      0.038000
     12 H5          0.5170   -0.6700   -0.9110 hc        1 MOL      0.038000
     13 H6          3.5640   -0.4730   -1.0340 hc        1 MOL      0.039300
     14 H7          2.6080   -0.0750    0.3900 hc        1 MOL      0.039300
     15 H8          1.7750   -2.4560    0.4690 hc        1 MOL      0.039000
     16 H9          2.7560   -2.8310   -0.9500 hc        1 MOL      0.039000
     17 H10         3.8350   -1.8120    1.7320 hc        1 MOL      0.039300
     18 H11         4.8210   -2.1930    0.3190 hc        1 MOL      0.039300
     19 H12         3.0290   -4.1860    1.8110 hc        1 MOL      0.038000
     20 H13         4.0150   -4.5670    0.3970 hc        1 MOL      0.038000
     21 H14         5.1750   -5.2400    2.4890 hc        1 MOL      0.032200
     22 H15         6.0820   -3.9500    1.6750 hc        1 MOL      0.032200
     23 H16         5.0800   -3.5750    3.0870 hc        1 MOL      0.032200
@<TRIPOS>BOND
     1    1    2 1   
     2    2    3 1   
     3    3    4 1   
     4    4    5 1   
     5    5    6 1   
     6    6    7 1   
     7    1    8 1   
     8    1    9 1   
     9    1   10 1   
    10    2   11 1   
    11    2   12 1   
    12    3   13 1   
    13    3   14 1   
    14    4   15 1   
    15    4   16 1   
    16    5   17 1   
    17    5   18 1   
    18    6   19 1   
    19    6   20 1   
    20    7   21 1   
    21    7   22 1   
    22    7   23 1   
@<TRIPOS>SUBSTRUCTURE
     1 MOL         1 TEMP              0 ****  ****    0 ROOT
