@<TRIPOS>MOLECULE
2-methylbenzaldehyde
   17    17     1     0     0
SMALL
No Charge or Current Charge


@<TRIPOS>ATOM
      1 C1          1.9570   -1.0270   -1.6040 c3        1 MOL     -0.064800
      2 C2          1.8850   -1.0360   -0.1120 ca        1 MOL     -0.033900
      3 C3          2.9210   -1.6310    0.6080 ca        1 MOL     -0.145000
      4 C4          2.8780   -1.6520    2.0020 ca        1 MOL     -0.098800
      5 C5          1.8000   -1.0790    2.6760 ca        1 MOL     -0.146700
      6 C6          0.7640   -0.4840    1.9550 ca        1 MOL     -0.073300
      7 C7          0.8070   -0.4630    0.5610 ca        1 MOL     -0.193600
      8 C8         -0.2880    0.1650   -0.1670 c         1 MOL      0.575100
      9 O1         -1.4450    0.1990    0.2580 o         1 MOL     -0.525400
     10 H1          2.4720   -0.1250   -1.9490 hc        1 MOL      0.049600
     11 H2          2.4960   -1.9060   -1.9750 hc        1 MOL      0.049600
     12 H3          0.9540   -1.0530   -2.0440 hc        1 MOL      0.049600
     13 H4          3.7660   -2.0800    0.0930 ha        1 MOL      0.135500
     14 H5          3.6840   -2.1150    2.5640 ha        1 MOL      0.134800
     15 H6          1.7660   -1.0950    3.7610 ha        1 MOL      0.137400
     16 H7         -0.0710   -0.0410    2.4920 ha        1 MOL      0.150200
     17 H8         -0.0480    0.6280   -1.1470 h4        1 MOL     -0.000300
@<TRIPOS>BOND
     1    1    2 1   
     2    2    7 ar  
     3    2    3 ar  
     4    3    4 ar  
     5    4    5 ar  
     6    5    6 ar  
     7    6    7 ar  
     8    7    8 1   
     9    8    9 2   
    10    1   10 1   
    11    1   11 1   
    12    1   12 1   
    13    3   13 1   
    14    4   14 1   
    15    5   15 1   
    16    6   16 1   
    17    8   17 1   
@<TRIPOS>SUBSTRUCTURE
     1 MOL         1 TEMP              0 ****  ****    0 ROOT
