@<TRIPOS>MOLECULE
bromoethane
    8     7     1     0     0
SMALL
No Charge or Current Charge


@<TRIPOS>ATOM
      1 C1          0.0130   -0.7250    0.8210 c3        1 MOL     -0.096100
      2 C2          1.1400   -0.4430    1.7860 c3        1 MOL     -0.007700
      3 Br1         2.8460   -0.5450    0.8590 br        1 MOL     -0.183800
      4 H1         -0.9510   -0.6680    1.3370 hc        1 MOL      0.048400
      5 H2         -0.0000    0.0000    0.0000 hc        1 MOL      0.048400
      6 H3          0.1030   -1.7240    0.3830 hc        1 MOL      0.048400
      7 H4          1.1720   -1.1780    2.5940 h1        1 MOL      0.071200
      8 H5          1.0670    0.5630    2.2080 h1        1 MOL      0.071200
@<TRIPOS>BOND
     1    1    2 1   
     2    2    3 1   
     3    1    4 1   
     4    1    5 1   
     5    1    6 1   
     6    2    7 1   
     7    2    8 1   
@<TRIPOS>SUBSTRUCTURE
     1 MOL         1 TEMP              0 ****  ****    0 ROOT
