@<TRIPOS>MOLECULE
diethyl
   26    25     1     0     0
SMALL
No Charge or Current Charge


@<TRIPOS>ATOM
      1 C1         -1.2680    0.7030   -1.6640 c3        1 MOL     -0.100600
      2 C2         -1.0420   -0.2240   -0.4900 c3        1 MOL      0.139400
      3 O1         -2.0600    0.0070    0.4900 os        1 MOL     -0.441500
      4 C3         -1.9810   -0.7660    1.6140 c         1 MOL      0.631900
      5 O2         -1.1310   -1.6170    1.8400 o         1 MOL     -0.544500
      6 C4         -3.1260   -0.4060    2.5360 c3        1 MOL     -0.127400
      7 C5         -3.1240   -1.2210    3.8270 c3        1 MOL     -0.127400
      8 C6         -4.2690   -0.8600    4.7490 c         1 MOL      0.631900
      9 O3         -5.1230   -0.0150    4.5200 o         1 MOL     -0.544500
     10 O4         -4.1960   -1.6400    5.8690 os        1 MOL     -0.441500
     11 C7         -5.2250   -1.4220    6.8400 c3        1 MOL      0.139400
     12 C8         -4.9950   -2.3580    8.0030 c3        1 MOL     -0.100500
     13 H1         -0.5060    0.5520   -2.4330 hc        1 MOL      0.049000
     14 H2         -2.2550    0.5330   -2.1070 hc        1 MOL      0.049000
     15 H3         -1.2410    1.7490   -1.3410 hc        1 MOL      0.049000
     16 H4         -0.0650   -0.0360   -0.0340 h1        1 MOL      0.052000
     17 H5         -1.0930   -1.2690   -0.8100 h1        1 MOL      0.052000
     18 H6         -4.0680   -0.5320    1.9920 hc        1 MOL      0.095800
     19 H7         -3.0080    0.6530    2.7960 hc        1 MOL      0.095800
     20 H8         -2.1950   -1.0060    4.3690 hc        1 MOL      0.095800
     21 H9         -3.1680   -2.2950    3.6150 hc        1 MOL      0.095800
     22 H10        -5.1760   -0.3810    7.1600 h1        1 MOL      0.052000
     23 H11        -6.1870   -1.6160    6.3660 h1        1 MOL      0.052000
     24 H12        -5.7660   -2.2170    8.7650 hc        1 MOL      0.049000
     25 H13        -5.0110   -3.4020    7.6730 hc        1 MOL      0.049000
     26 H14        -4.0140   -2.1830    8.4560 hc        1 MOL      0.049000
@<TRIPOS>BOND
     1    1    2 1   
     2    2    3 1   
     3    3    4 1   
     4    4    5 2   
     5    4    6 1   
     6    6    7 1   
     7    7    8 1   
     8    8    9 2   
     9    8   10 1   
    10   10   11 1   
    11   11   12 1   
    12    1   13 1   
    13    1   14 1   
    14    1   15 1   
    15    2   16 1   
    16    2   17 1   
    17    6   18 1   
    18    6   19 1   
    19    7   20 1   
    20    7   21 1   
    21   11   22 1   
    22   11   23 1   
    23   12   24 1   
    24   12   25 1   
    25   12   26 1   
@<TRIPOS>SUBSTRUCTURE
     1 MOL         1 TEMP              0 ****  ****    0 ROOT
