@<TRIPOS>MOLECULE
diethyl
   38    37     1     0     0
SMALL
No Charge or Current Charge


@<TRIPOS>ATOM
      1 C1         -2.5180   -5.5060   -1.2600 c3        1 MOL     -0.101400
      2 C2         -3.2090   -4.3500   -0.5680 c3        1 MOL      0.134600
      3 O1         -3.2470   -3.2300   -1.4580 os        1 MOL     -0.431200
      4 C3         -3.8470   -2.1060   -0.9640 c         1 MOL      0.624800
      5 O2         -4.3400   -1.9880    0.1490 o         1 MOL     -0.530600
      6 C4         -3.7770   -1.0120   -2.0100 c3        1 MOL     -0.139600
      7 C5         -4.4780   -1.3790   -3.3210 c3        1 MOL      0.114200
      8 H1         -4.0360   -2.2710   -3.7790 h1        1 MOL      0.124800
      9 C6         -4.3600   -0.2320   -4.3070 c         1 MOL      0.654200
     10 O3         -5.1530    0.6930   -4.4250 o         1 MOL     -0.507500
     11 O4         -3.2390   -0.4160   -5.0700 os        1 MOL     -0.426400
     12 C7         -3.0080    0.5730   -6.0780 c3        1 MOL      0.141800
     13 C8         -1.7410    0.2180   -6.8200 c3        1 MOL     -0.101900
     14 S1         -6.2440   -1.7600   -3.0510 ss        1 MOL     -0.391700
     15 P1         -6.8220   -2.8860   -4.7550 p5        1 MOL      0.836700
     16 S2         -8.6800   -3.5060   -4.8630 s         1 MOL     -0.394700
     17 O5         -6.3760   -2.0310   -6.0750 os        1 MOL     -0.491300
     18 C9         -6.2350   -2.6740   -7.3310 c3        1 MOL      0.120100
     19 O6         -5.7550   -4.1150   -4.9100 os        1 MOL     -0.491300
     20 C10        -5.6020   -5.0670   -3.8700 c3        1 MOL      0.120100
     21 H2         -2.4710   -6.3800   -0.6050 hc        1 MOL      0.049500
     22 H3         -3.0470   -5.7790   -2.1780 hc        1 MOL      0.049500
     23 H4         -1.4990   -5.2280   -1.5500 hc        1 MOL      0.049500
     24 H5         -2.6650   -4.0630    0.3360 h1        1 MOL      0.052900
     25 H6         -4.2340   -4.6210   -0.2990 h1        1 MOL      0.052900
     26 H7         -2.7270   -0.7560   -2.1950 hc        1 MOL      0.108800
     27 H8         -4.2550   -0.1300   -1.5660 hc        1 MOL      0.108800
     28 H9         -3.8660    0.5810   -6.7510 h1        1 MOL      0.052600
     29 H10        -2.9170    1.5430   -5.5890 h1        1 MOL      0.052600
     30 H11        -1.5350    0.9570   -7.6000 hc        1 MOL      0.051400
     31 H12        -0.8870    0.1790   -6.1360 hc        1 MOL      0.051400
     32 H13        -1.8250   -0.7700   -7.2820 hc        1 MOL      0.051400
     33 H14        -5.9330   -1.9410   -8.0820 h1        1 MOL      0.067500
     34 H15        -7.1850   -3.1330   -7.6130 h1        1 MOL      0.067500
     35 H16        -5.4680   -3.4470   -7.2480 h1        1 MOL      0.067500
     36 H17        -4.8490   -5.8030   -4.1610 h1        1 MOL      0.067500
     37 H18        -6.5590   -5.5600   -3.6860 h1        1 MOL      0.067500
     38 H19        -5.2770   -4.5520   -2.9650 h1        1 MOL      0.067500
@<TRIPOS>BOND
     1    1    2 1   
     2    2    3 1   
     3    3    4 1   
     4    4    5 2   
     5    4    6 1   
     6    6    7 1   
     7    7    8 1   
     8    7    9 1   
     9    9   10 2   
    10    9   11 1   
    11   11   12 1   
    12   12   13 1   
    13    7   14 1   
    14   14   15 1   
    15   15   16 2   
    16   15   17 1   
    17   17   18 1   
    18   15   19 1   
    19   19   20 1   
    20    1   21 1   
    21    1   22 1   
    22    1   23 1   
    23    2   24 1   
    24    2   25 1   
    25    6   26 1   
    26    6   27 1   
    27   12   28 1   
    28   12   29 1   
    29   13   30 1   
    30   13   31 1   
    31   13   32 1   
    32   18   33 1   
    33   18   34 1   
    34   18   35 1   
    35   20   36 1   
    36   20   37 1   
    37   20   38 1   
@<TRIPOS>SUBSTRUCTURE
     1 MOL         1 TEMP              0 ****  ****    0 ROOT
