@<TRIPOS>MOLECULE
4-methylsulfonyl-2,6-dinitro-N,N-dipropyl-aniline
   42    42     1     0     0
SMALL
No Charge or Current Charge


@<TRIPOS>ATOM
      1 C1          3.4480    3.6060   -0.0290 c3        1 MOL     -0.090500
      2 C2          3.6340    2.8450   -1.3340 c3        1 MOL     -0.109200
      3 C3          2.6190    1.7220   -1.5110 c3        1 MOL      0.238800
      4 N1          2.8010    1.0090   -2.7450 nh        1 MOL     -0.791600
      5 C4          2.7100    1.7480   -4.0090 c3        1 MOL      0.238800
      6 C5          1.3460    2.3800   -4.1790 c3        1 MOL     -0.109200
      7 C6          1.2060    3.1580   -5.4800 c3        1 MOL     -0.090500
      8 C7          3.0770   -0.3690   -2.7670 ca        1 MOL      0.328700
      9 C8          4.3970   -0.8170   -2.7380 ca        1 MOL     -0.193200
     10 C9          4.6710   -2.1850   -2.7600 ca        1 MOL      0.040400
     11 C10         3.6230   -3.1050   -2.8090 ca        1 MOL     -0.363100
     12 C11         2.3020   -2.6570   -2.8380 ca        1 MOL      0.040400
     13 C12         2.0290   -1.2890   -2.8160 ca        1 MOL     -0.193200
     14 N2          0.6710   -0.8620   -2.8470 no        1 MOL      0.318300
     15 O1          0.1270   -0.6580   -3.9570 o         1 MOL     -0.180200
     16 O2          0.0630   -0.7030   -1.7630 o         1 MOL     -0.180200
     17 S1          3.9660   -4.8170   -2.8330 sy        1 MOL      1.395000
     18 O3          5.2710   -5.0220   -2.2210 o         1 MOL     -0.642100
     19 O4          2.8070   -5.5370   -2.3230 o         1 MOL     -0.642100
     20 C13         4.1040   -5.2150   -4.5610 c3        1 MOL     -0.374400
     21 N3          5.4870    0.0970   -2.6860 no        1 MOL      0.318300
     22 O5          5.9180    0.4620   -1.5670 o         1 MOL     -0.180200
     23 O6          5.9810    0.5110   -3.7610 o         1 MOL     -0.180200
     24 H1          4.1910    4.4040    0.0690 hc        1 MOL      0.038000
     25 H2          2.4540    4.0630    0.0020 hc        1 MOL      0.038000
     26 H3          3.5380    2.9420    0.8370 hc        1 MOL      0.038000
     27 H4          4.6430    2.4150   -1.3480 hc        1 MOL      0.053600
     28 H5          3.5690    3.5470   -2.1730 hc        1 MOL      0.053600
     29 H6          2.7220    0.9930   -0.7020 h1        1 MOL      0.053500
     30 H7          1.5940    2.1070   -1.4950 h1        1 MOL      0.053500
     31 H8          2.9060    1.0160   -4.7870 h1        1 MOL      0.053500
     32 H9          3.5110    2.4800   -3.9930 h1        1 MOL      0.053500
     33 H10         0.6010    1.5760   -4.1700 hc        1 MOL      0.053600
     34 H11         1.1190    3.0430   -3.3360 hc        1 MOL      0.053600
     35 H12         0.2080    3.6000   -5.5660 hc        1 MOL      0.038000
     36 H13         1.9390    3.9700   -5.5130 hc        1 MOL      0.038000
     37 H14         1.3760    2.5160   -6.3490 hc        1 MOL      0.038000
     38 H15         5.6990   -2.5390   -2.7380 ha        1 MOL      0.186100
     39 H16         1.4880   -3.3770   -2.8760 ha        1 MOL      0.186100
     40 H17         4.3180   -6.2760   -4.6330 h1        1 MOL      0.124200
     41 H18         3.1550   -4.9690   -5.0270 h1        1 MOL      0.124200
     42 H19         4.9130   -4.6180   -4.9680 h1        1 MOL      0.124200
@<TRIPOS>BOND
     1    1    2 1   
     2    2    3 1   
     3    3    4 1   
     4    4    5 1   
     5    5    6 1   
     6    6    7 1   
     7    4    8 1   
     8    8   13 ar  
     9    8    9 ar  
    10    9   10 ar  
    11   10   11 ar  
    12   11   12 ar  
    13   12   13 ar  
    14   13   14 1   
    15   14   15 1   
    16   14   16 1   
    17   11   17 1   
    18   17   18 2   
    19   17   19 2   
    20   17   20 1   
    21    9   21 1   
    22   21   22 1   
    23   21   23 1   
    24    1   24 1   
    25    1   25 1   
    26    1   26 1   
    27    2   27 1   
    28    2   28 1   
    29    3   29 1   
    30    3   30 1   
    31    5   31 1   
    32    5   32 1   
    33    6   33 1   
    34    6   34 1   
    35    7   35 1   
    36    7   36 1   
    37    7   37 1   
    38   10   38 1   
    39   12   39 1   
    40   20   40 1   
    41   20   41 1   
    42   20   42 1   
@<TRIPOS>SUBSTRUCTURE
     1 MOL         1 TEMP              0 ****  ****    0 ROOT
