@<TRIPOS>MOLECULE
3-(5,6-dihydrodibenzo[1,2-d:2',1'-f][7]annulen-11-ylidene)-N,N-dimethyl-propan-1-amine
   44    46     1     0     0
SMALL
No Charge or Current Charge


@<TRIPOS>ATOM
      1 C1          7.7570    5.1890    1.6880 c3        1 MOL      0.142400
      2 N1          7.5680    4.2520    0.5810 n3        1 MOL     -0.709600
      3 C2          7.7290    4.9370   -0.7020 c3        1 MOL      0.142400
      4 C3          6.2720    3.6340    0.6610 c3        1 MOL      0.159500
      5 C4          6.2000    2.3360   -0.1370 c3        1 MOL     -0.058600
      6 C5          4.8470    1.6880   -0.0540 c2        1 MOL     -0.146700
      7 C6          4.6420    0.3590   -0.1310 ce        1 MOL     -0.015900
      8 C7          5.8490   -0.4920   -0.2020 ca        1 MOL     -0.040000
      9 C8          6.7090   -0.4300   -1.3080 ca        1 MOL     -0.118200
     10 C9          7.8450   -1.2370   -1.3640 ca        1 MOL     -0.134800
     11 C10         8.1280   -2.1130   -0.3200 ca        1 MOL     -0.125600
     12 C11         7.2760   -2.1860    0.7820 ca        1 MOL     -0.133900
     13 C12         6.1310   -1.3790    0.8500 ca        1 MOL     -0.058900
     14 C13         5.2050   -1.4650    2.0370 c3        1 MOL     -0.032100
     15 C14         3.8530   -2.0710    1.6600 c3        1 MOL     -0.032100
     16 C15         2.9080   -1.2750    0.7780 ca        1 MOL     -0.058900
     17 C16         3.2570   -0.1740   -0.0360 ca        1 MOL     -0.040000
     18 C17         2.2590    0.4180   -0.8400 ca        1 MOL     -0.118200
     19 C18         0.9430   -0.0430   -0.8300 ca        1 MOL     -0.134800
     20 C19         0.5970   -1.1180   -0.0270 ca        1 MOL     -0.125600
     21 C20         1.5700   -1.7290    0.7610 ca        1 MOL     -0.133900
     22 H1          7.6350    4.6720    2.6430 h1        1 MOL      0.032200
     23 H2          7.0220    5.9970    1.6290 h1        1 MOL      0.032200
     24 H3          8.7590    5.6240    1.6480 h1        1 MOL      0.032200
     25 H4          7.5830    4.2200   -1.5020 h1        1 MOL      0.032200
     26 H5          8.7280    5.3560   -0.7550 h1        1 MOL      0.032200
     27 H6          6.9900    5.7290   -0.7740 h1        1 MOL      0.032200
     28 H7          6.0800    3.4330    1.7200 h1        1 MOL      0.032400
     29 H8          5.5330    4.3630    0.3140 h1        1 MOL      0.032400
     30 H9          6.4770    2.5260   -1.1810 hc        1 MOL      0.063200
     31 H10         6.9370    1.6300    0.2650 hc        1 MOL      0.063200
     32 H11         3.9890    2.3410    0.0880 ha        1 MOL      0.128300
     33 H12         6.5250    0.2470   -2.1320 ha        1 MOL      0.132800
     34 H13         8.5140   -1.1780   -2.2190 ha        1 MOL      0.131400
     35 H14         9.0200   -2.7350   -0.3600 ha        1 MOL      0.130600
     36 H15         7.5190   -2.8720    1.5820 ha        1 MOL      0.130100
     37 H16         5.6470   -2.1190    2.7600 hc        1 MOL      0.052700
     38 H17         5.0660   -0.4850    2.4340 hc        1 MOL      0.052700
     39 H18         3.9940   -3.0960    1.2040 hc        1 MOL      0.052700
     40 H19         3.3110   -2.3230    2.6170 hc        1 MOL      0.052700
     41 H20         2.5110    1.2640   -1.4880 ha        1 MOL      0.132800
     42 H21         0.1940    0.4400   -1.4500 ha        1 MOL      0.131400
     43 H22        -0.4240   -1.4820   -0.0070 ha        1 MOL      0.130600
     44 H23         1.2830   -2.5830    1.3840 ha        1 MOL      0.130100
@<TRIPOS>BOND
     1    1    2 1   
     2    2    3 1   
     3    2    4 1   
     4    4    5 1   
     5    5    6 1   
     6    6    7 2   
     7    7   17 1   
     8    7    8 1   
     9    8   13 ar  
    10    8    9 ar  
    11    9   10 ar  
    12   10   11 ar  
    13   11   12 ar  
    14   12   13 ar  
    15   13   14 1   
    16   14   15 1   
    17   15   16 1   
    18   16   21 ar  
    19   16   17 ar  
    20   17   18 ar  
    21   18   19 ar  
    22   19   20 ar  
    23   20   21 ar  
    24    1   22 1   
    25    1   23 1   
    26    1   24 1   
    27    3   25 1   
    28    3   26 1   
    29    3   27 1   
    30    4   28 1   
    31    4   29 1   
    32    5   30 1   
    33    5   31 1   
    34    6   32 1   
    35    9   33 1   
    36   10   34 1   
    37   11   35 1   
    38   12   36 1   
    39   14   37 1   
    40   14   38 1   
    41   15   39 1   
    42   15   40 1   
    43   18   41 1   
    44   19   42 1   
    45   20   43 1   
    46   21   44 1   
@<TRIPOS>SUBSTRUCTURE
     1 MOL         1 TEMP              0 ****  ****    0 ROOT
