@<TRIPOS>MOLECULE
cyclopentanol
   16    16     1     0     0
SMALL
No Charge or Current Charge


@<TRIPOS>ATOM
      1 C1         -0.5070   -1.0670    1.8390 c3        1 MOL     -0.078200
      2 C2          0.3050   -0.0380    1.0510 c3        1 MOL     -0.078200
      3 C3          1.7690   -0.4550    1.1850 c3        1 MOL     -0.097500
      4 C4          1.8080   -1.3100    2.4420 c3        1 MOL      0.138200
      5 C5          0.4990   -2.0830    2.3730 c3        1 MOL     -0.097500
      6 O1          1.8250   -0.4670    3.5880 oh        1 MOL     -0.602600
      7 H1         -1.2700   -1.5480    1.2180 hc        1 MOL      0.043000
      8 H2         -1.0250   -0.5720    2.6690 hc        1 MOL      0.043000
      9 H3          0.0010    0.0000   -0.0000 hc        1 MOL      0.043000
     10 H4          0.1490    0.9610    1.4730 hc        1 MOL      0.043000
     11 H5          2.0580   -1.0540    0.3140 hc        1 MOL      0.051200
     12 H6          2.4240    0.4200    1.2420 hc        1 MOL      0.051200
     13 H7          2.6860   -1.9620    2.4750 h1        1 MOL      0.040600
     14 H8          0.5910   -2.9150    1.6650 hc        1 MOL      0.051200
     15 H9          0.1830   -2.4800    3.3420 hc        1 MOL      0.051200
     16 H10         1.8500   -1.0500    4.3630 ho        1 MOL      0.398600
@<TRIPOS>BOND
     1    1    5 1   
     2    1    2 1   
     3    2    3 1   
     4    3    4 1   
     5    4    5 1   
     6    4    6 1   
     7    1    7 1   
     8    1    8 1   
     9    2    9 1   
    10    2   10 1   
    11    3   11 1   
    12    3   12 1   
    13    4   13 1   
    14    5   14 1   
    15    5   15 1   
    16    6   16 1   
@<TRIPOS>SUBSTRUCTURE
     1 MOL         1 TEMP              0 ****  ****    0 ROOT
