@<TRIPOS>MOLECULE
N4-tert-butyl-N2-ethyl-6-methylsulfanyl-1,3,5-triazine-2,4-diamine
   35    35     1     0     0
SMALL
No Charge or Current Charge


@<TRIPOS>ATOM
      1 C1          5.1450   -5.1550    2.0500 c3        1 MOL     -0.127300
      2 C2          4.0580   -4.1760    2.3340 c3        1 MOL      0.205000
      3 N1          3.4770   -4.4050    3.6360 nh        1 MOL     -0.832400
      4 C3          2.4260   -3.6300    4.1730 ca        1 MOL      0.907300
      5 N2          1.9610   -2.6310    3.4060 nb        1 MOL     -0.830600
      6 C4          0.9640   -1.9390    3.9810 ca        1 MOL      0.891900
      7 N3          0.4290   -2.1600    5.1930 nb        1 MOL     -0.760600
      8 C5          0.9940   -3.1900    5.8440 ca        1 MOL      0.782200
      9 N4          1.9930   -3.9680    5.3980 nb        1 MOL     -0.767100
     10 S1          0.3520   -3.5620    7.4630 ss        1 MOL     -0.235400
     11 C6          0.6910   -1.9920    8.2910 c3        1 MOL     -0.065300
     12 N5          0.4310   -0.8890    3.2490 nh        1 MOL     -0.793600
     13 C7          0.8920   -0.5160    1.9240 c3        1 MOL      0.209800
     14 C8          0.7040   -1.7000    0.9690 c3        1 MOL     -0.105500
     15 C9          0.0760    0.6830    1.4290 c3        1 MOL     -0.105500
     16 C10         2.3770   -0.1410    1.9910 c3        1 MOL     -0.105500
     17 H1          5.5830   -4.9770    1.0620 hc        1 MOL      0.044700
     18 H2          5.9330   -5.0950    2.8090 hc        1 MOL      0.044700
     19 H3          4.7400   -6.1740    2.0620 hc        1 MOL      0.044700
     20 H4          3.2590   -4.2640    1.5920 h1        1 MOL      0.062200
     21 H5          4.4430   -3.1520    2.3170 h1        1 MOL      0.062200
     22 H6          3.8450   -5.1670    4.1950 hn        1 MOL      0.440900
     23 H7          0.3520   -2.0410    9.3280 h1        1 MOL      0.074900
     24 H8          0.1650   -1.1840    7.7790 h1        1 MOL      0.074900
     25 H9          1.7640   -1.7900    8.2730 h1        1 MOL      0.074900
     26 H10        -0.3220   -0.3510    3.6620 hn        1 MOL      0.399000
     27 H11         1.0430   -1.4510   -0.0430 hc        1 MOL      0.045500
     28 H12         1.2670   -2.5780    1.3060 hc        1 MOL      0.045500
     29 H13        -0.3520   -1.9850    0.8960 hc        1 MOL      0.045500
     30 H14         0.3980    0.9940    0.4280 hc        1 MOL      0.045500
     31 H15         0.2020    1.5470    2.0930 hc        1 MOL      0.045500
     32 H16        -0.9920    0.4470    1.3820 hc        1 MOL      0.045500
     33 H17         2.7570    0.1470    1.0040 hc        1 MOL      0.045500
     34 H18         2.5460    0.6980    2.6750 hc        1 MOL      0.045500
     35 H19         2.9840   -0.9860    2.3370 hc        1 MOL      0.045500
@<TRIPOS>BOND
     1    1    2 1   
     2    2    3 1   
     3    3    4 1   
     4    4    9 ar  
     5    4    5 ar  
     6    5    6 ar  
     7    6    7 ar  
     8    7    8 ar  
     9    8    9 ar  
    10    8   10 1   
    11   10   11 1   
    12    6   12 1   
    13   12   13 1   
    14   13   14 1   
    15   13   15 1   
    16   13   16 1   
    17    1   17 1   
    18    1   18 1   
    19    1   19 1   
    20    2   20 1   
    21    2   21 1   
    22    3   22 1   
    23   11   23 1   
    24   11   24 1   
    25   11   25 1   
    26   12   26 1   
    27   14   27 1   
    28   14   28 1   
    29   14   29 1   
    30   15   30 1   
    31   15   31 1   
    32   15   32 1   
    33   16   33 1   
    34   16   34 1   
    35   16   35 1   
@<TRIPOS>SUBSTRUCTURE
     1 MOL         1 TEMP              0 ****  ****    0 ROOT
