@<TRIPOS>MOLECULE
3,6-dichloro-2-methoxy-benzoic
   19    19     1     0     0
SMALL
No Charge or Current Charge


@<TRIPOS>ATOM
      1 C1          2.5540    0.1100   -2.0820 c3        1 MOL      0.112400
      2 O1          1.9230   -1.0130   -1.4770 os        1 MOL     -0.327500
      3 C2          1.8850   -1.0360   -0.1120 ca        1 MOL      0.153100
      4 C3          2.9210   -1.6310    0.6080 ca        1 MOL     -0.010200
      5 C4          2.8780   -1.6520    2.0020 ca        1 MOL     -0.087300
      6 C5          1.8000   -1.0790    2.6760 ca        1 MOL     -0.134300
      7 C6          0.7640   -0.4840    1.9550 ca        1 MOL      0.065100
      8 C7          0.8070   -0.4630    0.5610 ca        1 MOL     -0.120500
      9 C8         -0.2680    0.1540   -0.2130 c         1 MOL      0.658200
     10 O2         -0.6080    1.3350   -0.1380 o         1 MOL     -0.532400
     11 O3         -0.8720   -0.7300   -1.0500 oh        1 MOL     -0.578500
     12 Cl1        -0.5520    0.2130    2.8310 cl        1 MOL     -0.053200
     13 Cl2         4.2690   -2.3490   -0.1950 cl        1 MOL     -0.057800
     14 H1          2.5180    0.0070   -3.1690 h1        1 MOL      0.049700
     15 H2          3.5920    0.1700   -1.7450 h1        1 MOL      0.049700
     16 H3          2.0240    1.0180   -1.7850 h1        1 MOL      0.049700
     17 H4          3.6780   -2.1110    2.5780 ha        1 MOL      0.159100
     18 H5          1.7820   -1.1040    3.7620 ha        1 MOL      0.160100
     19 H6         -1.5940   -0.3240   -1.5750 ho        1 MOL      0.444500
@<TRIPOS>BOND
     1    1    2 1   
     2    2    3 1   
     3    3    8 ar  
     4    3    4 ar  
     5    4    5 ar  
     6    5    6 ar  
     7    6    7 ar  
     8    7    8 ar  
     9    8    9 1   
    10    9   10 2   
    11    9   11 1   
    12    7   12 1   
    13    4   13 1   
    14    1   14 1   
    15    1   15 1   
    16    1   16 1   
    17    5   17 1   
    18    6   18 1   
    19   11   19 1   
@<TRIPOS>SUBSTRUCTURE
     1 MOL         1 TEMP              0 ****  ****    0 ROOT
