@<TRIPOS>MOLECULE
2-acetoxyethyl
   20    19     1     0     0
SMALL
No Charge or Current Charge


@<TRIPOS>ATOM
      1 C1         -0.1310    1.1110   -0.1830 c3        1 MOL     -0.149100
      2 C2         -0.7130    1.3210   -1.5480 c         1 MOL      0.637000
      3 O1         -0.1670    1.9650   -2.4340 o         1 MOL     -0.534700
      4 O2         -1.9190    0.6900   -1.6320 os        1 MOL     -0.450500
      5 C3         -2.5900    0.8100   -2.8900 c3        1 MOL      0.137000
      6 C4         -3.9020    0.0600   -2.8140 c3        1 MOL      0.137000
      7 O3         -3.6410   -1.3090   -2.5310 os        1 MOL     -0.450500
      8 C5         -4.7410   -2.1160   -2.4330 c         1 MOL      0.637000
      9 O4         -5.9050   -1.7660   -2.5650 o         1 MOL     -0.534700
     10 C6         -4.3160   -3.5220   -2.1340 c3        1 MOL     -0.149000
     11 H1         -0.4560    1.9120    0.4850 hc        1 MOL      0.077800
     12 H2          0.9600    1.0800   -0.2460 hc        1 MOL      0.077800
     13 H3         -0.4830    0.1570    0.2180 hc        1 MOL      0.077800
     14 H4         -2.7470    1.8730   -3.0820 h1        1 MOL      0.063500
     15 H5         -1.9410    0.3830   -3.6560 h1        1 MOL      0.063500
     16 H6         -4.4470    0.1140   -3.7620 h1        1 MOL      0.063500
     17 H7         -4.5220    0.4640   -2.0090 h1        1 MOL      0.063500
     18 H8         -4.2650   -3.6720   -1.0520 hc        1 MOL      0.077800
     19 H9         -3.3460   -3.7220   -2.5960 hc        1 MOL      0.077800
     20 H10        -5.0490   -4.2190   -2.5490 hc        1 MOL      0.077800
@<TRIPOS>BOND
     1    1    2 1   
     2    2    3 2   
     3    2    4 1   
     4    4    5 1   
     5    5    6 1   
     6    6    7 1   
     7    7    8 1   
     8    8    9 2   
     9    8   10 1   
    10    1   11 1   
    11    1   12 1   
    12    1   13 1   
    13    5   14 1   
    14    5   15 1   
    15    6   16 1   
    16    6   17 1   
    17   10   18 1   
    18   10   19 1   
    19   10   20 1   
@<TRIPOS>SUBSTRUCTURE
     1 MOL         1 TEMP              0 ****  ****    0 ROOT
