@<TRIPOS>MOLECULE
1,1,1-trimethoxyethane
   20    19     1     0     0
SMALL
No Charge or Current Charge


@<TRIPOS>ATOM
      1 C1          0.1450    0.0970    1.0820 c3        1 MOL     -0.112500
      2 C2          1.2770   -0.8260    1.5630 c3        1 MOL      0.524900
      3 O1          0.7480   -2.1650    1.4380 os        1 MOL     -0.450300
      4 C3          1.6590   -3.1800    1.8410 c3        1 MOL      0.133700
      5 O2          1.6620   -0.5240    2.9160 os        1 MOL     -0.450300
      6 C4          0.6380   -0.6530    3.8920 c3        1 MOL      0.133700
      7 O3          2.4000   -0.6800    0.6660 os        1 MOL     -0.450300
      8 C5          3.2140    0.4630    0.8890 c3        1 MOL      0.133700
      9 H1          0.4340    1.1520    1.1320 hc        1 MOL      0.061100
     10 H2         -0.1300   -0.1350    0.0470 hc        1 MOL      0.061100
     11 H3         -0.7580   -0.0260    1.6890 hc        1 MOL      0.061100
     12 H4          1.1870   -4.1550    1.7170 h1        1 MOL      0.039400
     13 H5          1.9350   -3.0210    2.8840 h1        1 MOL      0.039400
     14 H6          2.5480   -3.1200    1.2120 h1        1 MOL      0.039400
     15 H7          1.0420   -0.4020    4.8730 h1        1 MOL      0.039400
     16 H8          0.2650   -1.6790    3.8880 h1        1 MOL      0.039400
     17 H9         -0.1720    0.0330    3.6430 h1        1 MOL      0.039400
     18 H10         4.0260    0.4730    0.1610 h1        1 MOL      0.039400
     19 H11         3.6150    0.4280    1.9030 h1        1 MOL      0.039400
     20 H12         2.6020    1.3580    0.7670 h1        1 MOL      0.039400
@<TRIPOS>BOND
     1    1    2 1   
     2    2    3 1   
     3    3    4 1   
     4    2    5 1   
     5    5    6 1   
     6    2    7 1   
     7    7    8 1   
     8    1    9 1   
     9    1   10 1   
    10    1   11 1   
    11    4   12 1   
    12    4   13 1   
    13    4   14 1   
    14    6   15 1   
    15    6   16 1   
    16    6   17 1   
    17    8   18 1   
    18    8   19 1   
    19    8   20 1   
@<TRIPOS>SUBSTRUCTURE
     1 MOL         1 TEMP              0 ****  ****    0 ROOT
