@<TRIPOS>MOLECULE
butyl
   17    16     1     0     0
SMALL
No Charge or Current Charge


@<TRIPOS>ATOM
      1 C1          0.3900   -1.0210   -0.0850 c3        1 MOL     -0.100200
      2 C2         -0.5800   -2.0240    0.5200 c3        1 MOL     -0.075200
      3 C3         -1.9310   -1.9920   -0.1890 c3        1 MOL     -0.115600
      4 C4         -2.9050   -2.9950    0.4140 c3        1 MOL      0.131000
      5 O1         -4.1380   -2.9160   -0.2880 os        1 MOL     -0.345400
      6 N1         -5.1270   -3.8160    0.1970 no        1 MOL      0.373700
      7 O2         -4.8200   -4.5460    1.1420 o         1 MOL     -0.184800
      8 O3         -6.1900   -3.7370   -0.4200 o         1 MOL     -0.184800
      9 H1          1.3560   -1.0500    0.4290 hc        1 MOL      0.038500
     10 H2          0.5590   -1.2300   -1.1460 hc        1 MOL      0.038500
     11 H3         -0.0100   -0.0060    0.0030 hc        1 MOL      0.038500
     12 H4         -0.1470   -3.0290    0.4520 hc        1 MOL      0.046000
     13 H5         -0.7120   -1.7990    1.5850 hc        1 MOL      0.046000
     14 H6         -2.3650   -0.9870   -0.1340 hc        1 MOL      0.061900
     15 H7         -1.8040   -2.2070   -1.2570 hc        1 MOL      0.061900
     16 H8         -2.5190   -4.0160    0.3260 h1        1 MOL      0.085000
     17 H9         -3.0900   -2.7740    1.4700 h1        1 MOL      0.085000
@<TRIPOS>BOND
     1    1    2 1   
     2    2    3 1   
     3    3    4 1   
     4    4    5 1   
     5    5    6 1   
     6    6    7 1   
     7    6    8 1   
     8    1    9 1   
     9    1   10 1   
    10    1   11 1   
    11    2   12 1   
    12    2   13 1   
    13    3   14 1   
    14    3   15 1   
    15    4   16 1   
    16    4   17 1   
@<TRIPOS>SUBSTRUCTURE
     1 MOL         1 TEMP              0 ****  ****    0 ROOT
