@<TRIPOS>MOLECULE
(2R)-1,1,1-trifluoropropan-2-ol
   12    11     1     0     0
SMALL
No Charge or Current Charge


@<TRIPOS>ATOM
      1 C1         -0.7760    0.5920    0.8350 c3        1 MOL     -0.139900
      2 C2         -0.2370   -0.1770   -0.3620 c3        1 MOL      0.110700
      3 H1         -0.9250   -0.9880   -0.6240 h1        1 MOL      0.070600
      4 C3          1.1380   -0.7500   -0.0930 c3        1 MOL      0.634200
      5 F1          1.1120   -1.6010    0.9550 f         1 MOL     -0.232600
      6 F2          1.5900   -1.4390   -1.1640 f         1 MOL     -0.232600
      7 F3          2.0360    0.2190    0.1830 f         1 MOL     -0.232600
      8 O1         -0.1450    0.7000   -1.4800 oh        1 MOL     -0.583400
      9 H2         -0.1020    1.4090    1.1140 hc        1 MOL      0.062400
     10 H3         -0.9130   -0.0630    1.7010 hc        1 MOL      0.062400
     11 H4         -1.7400    1.0510    0.5910 hc        1 MOL      0.062400
     12 H5         -1.0430    1.0250   -1.6520 ho        1 MOL      0.418600
@<TRIPOS>BOND
     1    1    2 1   
     2    2    3 1   
     3    2    4 1   
     4    4    5 1   
     5    4    6 1   
     6    4    7 1   
     7    2    8 1   
     8    1    9 1   
     9    1   10 1   
    10    1   11 1   
    11    8   12 1   
@<TRIPOS>SUBSTRUCTURE
     1 MOL         1 TEMP              0 ****  ****    0 ROOT
