@<TRIPOS>MOLECULE
1,4-dioxane
   14    14     1     0     0
SMALL
No Charge or Current Charge


@<TRIPOS>ATOM
      1 C1          0.2260   -0.9150   -1.0350 c3        1 MOL      0.090500
      2 C2         -0.1050    0.5470   -1.2850 c3        1 MOL      0.090500
      3 O1          0.3670    1.3410   -0.1940 os        1 MOL     -0.413200
      4 C3         -0.2260    0.9150    1.0350 c3        1 MOL      0.090500
      5 C4          0.1050   -0.5470    1.2850 c3        1 MOL      0.090500
      6 O2         -0.3670   -1.3410    0.1930 os        1 MOL     -0.413200
      7 H1          1.3100   -1.0720   -0.9760 h1        1 MOL      0.058000
      8 H2         -0.1680   -1.5410   -1.8410 h1        1 MOL      0.058000
      9 H3          0.3800    0.9000   -2.2000 h1        1 MOL      0.058000
     10 H4         -1.1860    0.6970   -1.3870 h1        1 MOL      0.058000
     11 H5          0.1680    1.5410    1.8410 h1        1 MOL      0.058000
     12 H6         -1.3100    1.0720    0.9760 h1        1 MOL      0.058000
     13 H7          1.1860   -0.6970    1.3870 h1        1 MOL      0.058000
     14 H8         -0.3800   -0.9000    2.2000 h1        1 MOL      0.058000
@<TRIPOS>BOND
     1    1    6 1   
     2    1    2 1   
     3    2    3 1   
     4    3    4 1   
     5    4    5 1   
     6    5    6 1   
     7    1    7 1   
     8    1    8 1   
     9    2    9 1   
    10    2   10 1   
    11    4   11 1   
    12    4   12 1   
    13    5   13 1   
    14    5   14 1   
@<TRIPOS>SUBSTRUCTURE
     1 MOL         1 TEMP              0 ****  ****    0 ROOT
