@<TRIPOS>MOLECULE
hexan-1-ol
   21    20     1     0     0
SMALL
No Charge or Current Charge


@<TRIPOS>ATOM
      1 C1          1.7560   -1.3900    0.8920 c3        1 MOL     -0.092000
      2 C2          1.1580   -1.8700    2.2060 c3        1 MOL     -0.079800
      3 C3         -0.1230   -1.1070    2.5460 c3        1 MOL     -0.079000
      4 C4         -0.7660   -1.5520    3.8620 c3        1 MOL     -0.078800
      5 C5         -2.0460   -0.7900    4.2020 c3        1 MOL     -0.084400
      6 C6         -2.6480   -1.2670    5.5170 c3        1 MOL      0.132500
      7 O1         -3.8300   -0.5240    5.7780 oh        1 MOL     -0.601600
      8 H1          2.6710   -1.9480    0.6660 hc        1 MOL      0.033100
      9 H2          1.0550   -1.5380    0.0640 hc        1 MOL      0.033100
     10 H3          2.0100   -0.3270    0.9410 hc        1 MOL      0.033100
     11 H4          1.8950   -1.7360    3.0060 hc        1 MOL      0.038000
     12 H5          0.9530   -2.9420    2.1250 hc        1 MOL      0.038000
     13 H6         -0.8460   -1.2130    1.7280 hc        1 MOL      0.041400
     14 H7          0.1080   -0.0370    2.6240 hc        1 MOL      0.041400
     15 H8         -0.0360   -1.4010    4.6670 hc        1 MOL      0.039300
     16 H9         -0.9750   -2.6280    3.8230 hc        1 MOL      0.039300
     17 H10        -2.7920   -0.9090    3.4080 hc        1 MOL      0.055100
     18 H11        -1.8410    0.2860    4.2660 hc        1 MOL      0.055100
     19 H12        -2.9080   -2.3290    5.4640 h1        1 MOL      0.018900
     20 H13        -1.9500   -1.1120    6.3460 h1        1 MOL      0.018900
     21 H14        -4.1880   -0.8510    6.6190 ho        1 MOL      0.398400
@<TRIPOS>BOND
     1    1    2 1   
     2    2    3 1   
     3    3    4 1   
     4    4    5 1   
     5    5    6 1   
     6    6    7 1   
     7    1    8 1   
     8    1    9 1   
     9    1   10 1   
    10    2   11 1   
    11    2   12 1   
    12    3   13 1   
    13    3   14 1   
    14    4   15 1   
    15    4   16 1   
    16    5   17 1   
    17    5   18 1   
    18    6   19 1   
    19    6   20 1   
    20    7   21 1   
@<TRIPOS>SUBSTRUCTURE
     1 MOL         1 TEMP              0 ****  ****    0 ROOT
