@<TRIPOS>MOLECULE
1,2-dichlorobenzene
   12    12     1     0     0
SMALL
No Charge or Current Charge


@<TRIPOS>ATOM
      1 C1          1.8850   -1.0360   -0.1120 ca        1 MOL     -0.121400
      2 C2          2.9210   -1.6310    0.6080 ca        1 MOL     -0.121300
      3 C3          2.8780   -1.6520    2.0020 ca        1 MOL     -0.117700
      4 C4          1.8000   -1.0790    2.6760 ca        1 MOL      0.017500
      5 C5          0.7640   -0.4840    1.9550 ca        1 MOL      0.017500
      6 C6          0.8070   -0.4630    0.5610 ca        1 MOL     -0.117700
      7 Cl1        -0.5990    0.2430    2.7320 cl        1 MOL     -0.070300
      8 Cl2         1.8040   -1.1370    4.4030 cl        1 MOL     -0.070300
      9 H1          1.9190   -1.0200   -1.1980 ha        1 MOL      0.141000
     10 H2          3.7610   -2.0770    0.0840 ha        1 MOL      0.141000
     11 H3          3.6940   -2.1200    2.5480 ha        1 MOL      0.150900
     12 H4          0.0080   -0.0040   -0.0170 ha        1 MOL      0.150900
@<TRIPOS>BOND
     1    1    6 ar  
     2    1    2 ar  
     3    2    3 ar  
     4    3    4 ar  
     5    4    5 ar  
     6    5    6 ar  
     7    5    7 1   
     8    4    8 1   
     9    1    9 1   
    10    2   10 1   
    11    3   11 1   
    12    6   12 1   
@<TRIPOS>SUBSTRUCTURE
     1 MOL         1 TEMP              0 ****  ****    0 ROOT
