@<TRIPOS>MOLECULE
methyl
   11    10     1     0     0
SMALL
No Charge or Current Charge


@<TRIPOS>ATOM
      1 C1         -0.3570   -0.1350    1.0260 c3        1 MOL      0.127400
      2 O1          0.7390   -0.4470    1.8930 os        1 MOL     -0.447300
      3 C2          1.4130   -1.6000    1.6010 c         1 MOL      0.620700
      4 O2          1.1540   -2.3620    0.6800 o         1 MOL     -0.506900
      5 C3          2.5220   -1.7680    2.6030 c3        1 MOL     -0.029300
      6 Cl1         3.4290   -3.2530    2.2670 cl        1 MOL     -0.128800
      7 H1         -0.8220    0.8000    1.3470 h1        1 MOL      0.053600
      8 H2         -1.0880   -0.9470    1.0550 h1        1 MOL      0.053600
      9 H3          0.0180   -0.0220    0.0060 h1        1 MOL      0.053600
     10 H4          2.1060   -1.8470    3.6100 h1        1 MOL      0.101600
     11 H5          3.2160   -0.9260    2.5340 h1        1 MOL      0.101600
@<TRIPOS>BOND
     1    1    2 1   
     2    2    3 1   
     3    3    4 2   
     4    3    5 1   
     5    5    6 1   
     6    1    7 1   
     7    1    8 1   
     8    1    9 1   
     9    5   10 1   
    10    5   11 1   
@<TRIPOS>SUBSTRUCTURE
     1 MOL         1 TEMP              0 ****  ****    0 ROOT
