@<TRIPOS>MOLECULE
o-cresol
   16    16     1     0     0
SMALL
No Charge or Current Charge


@<TRIPOS>ATOM
      1 C1          1.9470   -1.0230   -1.6040 c3        1 MOL     -0.045100
      2 C2          1.8850   -1.0360   -0.1120 ca        1 MOL     -0.099600
      3 C3          2.9210   -1.6310    0.6080 ca        1 MOL     -0.101900
      4 C4          2.8780   -1.6520    2.0020 ca        1 MOL     -0.160600
      5 C5          1.8000   -1.0790    2.6760 ca        1 MOL     -0.096800
      6 C6          0.7640   -0.4840    1.9550 ca        1 MOL     -0.209400
      7 C7          0.8070   -0.4630    0.5610 ca        1 MOL      0.122100
      8 O1         -0.2140    0.1210   -0.1280 oh        1 MOL     -0.498900
      9 H1          2.4590   -0.1200   -1.9500 hc        1 MOL      0.047300
     10 H2          2.4840   -1.9000   -1.9810 hc        1 MOL      0.047300
     11 H3          0.9420   -1.0480   -2.0380 hc        1 MOL      0.047300
     12 H4          3.7660   -2.0790    0.0930 ha        1 MOL      0.133900
     13 H5          3.6850   -2.1140    2.5640 ha        1 MOL      0.132800
     14 H6          1.7670   -1.0940    3.7610 ha        1 MOL      0.131600
     15 H7         -0.0740   -0.0390    2.4860 ha        1 MOL      0.131800
     16 H8         -0.8780    0.4670    0.4880 ho        1 MOL      0.418100
@<TRIPOS>BOND
     1    1    2 1   
     2    2    7 ar  
     3    2    3 ar  
     4    3    4 ar  
     5    4    5 ar  
     6    5    6 ar  
     7    6    7 ar  
     8    7    8 1   
     9    1    9 1   
    10    1   10 1   
    11    1   11 1   
    12    3   12 1   
    13    4   13 1   
    14    5   14 1   
    15    6   15 1   
    16    8   16 1   
@<TRIPOS>SUBSTRUCTURE
     1 MOL         1 TEMP              0 ****  ****    0 ROOT
