@<TRIPOS>MOLECULE
pentan-1-ol
   18    17     1     0     0
SMALL
No Charge or Current Charge


@<TRIPOS>ATOM
      1 C1          0.7910   -0.3880    0.6500 c3        1 MOL     -0.092200
      2 C2          1.6190   -1.4420   -0.0690 c3        1 MOL     -0.079100
      3 C3          2.2940   -0.8690   -1.3150 c3        1 MOL     -0.077600
      4 C4          3.1240   -1.9290   -2.0350 c3        1 MOL     -0.084400
      5 C5          3.8000   -1.3670   -3.2770 c3        1 MOL      0.132300
      6 O1          4.5530   -2.4000   -3.8970 oh        1 MOL     -0.602000
      7 H1          0.3110   -0.8070    1.5410 hc        1 MOL      0.033200
      8 H2          1.4150    0.4560    0.9610 hc        1 MOL      0.033200
      9 H3          0.0060   -0.0060   -0.0100 hc        1 MOL      0.033200
     10 H4          0.9690   -2.2800   -0.3490 hc        1 MOL      0.040100
     11 H5          2.3770   -1.8340    0.6180 hc        1 MOL      0.040100
     12 H6          1.5320   -0.4730   -1.9970 hc        1 MOL      0.038400
     13 H7          2.9390   -0.0290   -1.0290 hc        1 MOL      0.038400
     14 H8          2.4900   -2.7780   -2.3200 hc        1 MOL      0.054600
     15 H9          3.8860   -2.3380   -1.3600 hc        1 MOL      0.054600
     16 H10         4.4790   -0.5490   -3.0150 h1        1 MOL      0.019300
     17 H11         3.0580   -0.9990   -3.9920 h1        1 MOL      0.019300
     18 H12         4.9700   -2.0090   -4.6830 ho        1 MOL      0.398500
@<TRIPOS>BOND
     1    1    2 1   
     2    2    3 1   
     3    3    4 1   
     4    4    5 1   
     5    5    6 1   
     6    1    7 1   
     7    1    8 1   
     8    1    9 1   
     9    2   10 1   
    10    2   11 1   
    11    3   12 1   
    12    3   13 1   
    13    4   14 1   
    14    4   15 1   
    15    5   16 1   
    16    5   17 1   
    17    6   18 1   
@<TRIPOS>SUBSTRUCTURE
     1 MOL         1 TEMP              0 ****  ****    0 ROOT
