@<TRIPOS>MOLECULE
fluoromethane
    5     4     1     0     0
SMALL
No Charge or Current Charge


@<TRIPOS>ATOM
      1 C1          0.0350   -0.0340   -0.0360 c3        1 MOL      0.148200
      2 F1         -0.7450    0.7340    0.7650 f         1 MOL     -0.250200
      3 H1          0.8200    0.5910   -0.4650 h1        1 MOL      0.034000
      4 H2          0.4760   -0.8330    0.5650 h1        1 MOL      0.034000
      5 H3         -0.5850   -0.4580   -0.8290 h1        1 MOL      0.034000
@<TRIPOS>BOND
     1    1    2 1   
     2    1    3 1   
     3    1    4 1   
     4    1    5 1   
@<TRIPOS>SUBSTRUCTURE
     1 MOL         1 TEMP              0 ****  ****    0 ROOT
