@<TRIPOS>MOLECULE
2,6-dimethylaniline
   20    20     1     0     0
SMALL
No Charge or Current Charge


@<TRIPOS>ATOM
      1 C1          1.9600   -1.0270   -1.6050 c3        1 MOL     -0.042100
      2 C2          1.8850   -1.0360   -0.1120 ca        1 MOL     -0.162200
      3 C3          2.9210   -1.6310    0.6080 ca        1 MOL     -0.083800
      4 C4          2.8780   -1.6520    2.0020 ca        1 MOL     -0.186400
      5 C5          1.8000   -1.0790    2.6760 ca        1 MOL     -0.083800
      6 C6          0.7640   -0.4840    1.9550 ca        1 MOL     -0.162200
      7 C7          0.8070   -0.4630    0.5610 ca        1 MOL      0.203600
      8 N1         -0.2420    0.1420   -0.1700 nh        1 MOL     -0.890400
      9 C8         -0.3780    0.1230    2.7040 c3        1 MOL     -0.042100
     10 H1          2.4750   -0.1250   -1.9480 hc        1 MOL      0.036900
     11 H2          2.4980   -1.9060   -1.9750 hc        1 MOL      0.036900
     12 H3          0.9580   -1.0520   -2.0460 hc        1 MOL      0.036900
     13 H4          3.7660   -2.0800    0.0930 ha        1 MOL      0.126100
     14 H5          3.6850   -2.1140    2.5630 ha        1 MOL      0.129300
     15 H6          1.7760   -1.1010    3.7620 ha        1 MOL      0.126100
     16 H7         -0.1740    0.1910   -1.1640 hn        1 MOL      0.423200
     17 H8         -0.9820    0.5910    0.3280 hn        1 MOL      0.423200
     18 H9         -0.1710    1.1770    2.9220 hc        1 MOL      0.036900
     19 H10        -1.3080    0.0610    2.1260 hc        1 MOL      0.036900
     20 H11        -0.5540   -0.4030    3.6500 hc        1 MOL      0.036900
@<TRIPOS>BOND
     1    1    2 1   
     2    2    7 ar  
     3    2    3 ar  
     4    3    4 ar  
     5    4    5 ar  
     6    5    6 ar  
     7    6    7 ar  
     8    7    8 1   
     9    6    9 1   
    10    1   10 1   
    11    1   11 1   
    12    1   12 1   
    13    3   13 1   
    14    4   14 1   
    15    5   15 1   
    16    8   16 1   
    17    8   17 1   
    18    9   18 1   
    19    9   19 1   
    20    9   20 1   
@<TRIPOS>SUBSTRUCTURE
     1 MOL         1 TEMP              0 ****  ****    0 ROOT
