@<TRIPOS>MOLECULE
1,2,3-trichloro-5-(2,5-dichlorophenyl)benzene
   22    23     1     0     0
SMALL
No Charge or Current Charge


@<TRIPOS>ATOM
      1 C1          1.8850   -1.0360   -0.1120 ca        1 MOL     -0.111100
      2 C2          2.9210   -1.6310    0.6080 ca        1 MOL     -0.118600
      3 C3          2.8780   -1.6520    2.0020 ca        1 MOL      0.030100
      4 C4          1.8000   -1.0790    2.6760 cp        1 MOL     -0.038000
      5 C5          0.7640   -0.4840    1.9550 ca        1 MOL     -0.101100
      6 C6          0.8070   -0.4630    0.5610 ca        1 MOL      0.014000
      7 Cl1        -0.4710    0.2700   -0.3290 cl        1 MOL     -0.078800
      8 C7          1.7150   -1.0780    4.1240 cp        1 MOL     -0.030700
      9 C8          1.0910   -2.1350    4.7870 ca        1 MOL     -0.097200
     10 C9          1.0090   -2.1350    6.1790 ca        1 MOL      0.021600
     11 C10         1.5520   -1.0770    6.9090 ca        1 MOL      0.021400
     12 C11         2.1760   -0.0200    6.2470 ca        1 MOL      0.021600
     13 C12         2.2580   -0.0210    4.8540 ca        1 MOL     -0.097200
     14 Cl2         2.8720    1.3250    7.0840 cl        1 MOL     -0.058700
     15 Cl3         1.4490   -1.0760    8.6440 cl        1 MOL     -0.042100
     16 Cl4         0.2200   -3.4790    6.9300 cl        1 MOL     -0.058700
     17 Cl5         4.1900   -2.4030    2.8440 cl        1 MOL     -0.070200
     18 H1          1.9320   -1.0270   -1.1980 ha        1 MOL      0.154100
     19 H2          3.7540   -2.0730    0.0670 ha        1 MOL      0.155600
     20 H3         -0.0790   -0.0360    2.4770 ha        1 MOL      0.159800
     21 H4          0.6680   -2.9590    4.2140 ha        1 MOL      0.162100
     22 H5          2.7440    0.8030    4.3340 ha        1 MOL      0.162100
@<TRIPOS>BOND
     1    1    6 ar  
     2    1    2 ar  
     3    2    3 ar  
     4    3    4 ar  
     5    4    5 ar  
     6    5    6 ar  
     7    6    7 1   
     8    4    8 1   
     9    8   13 ar  
    10    8    9 ar  
    11    9   10 ar  
    12   10   11 ar  
    13   11   12 ar  
    14   12   13 ar  
    15   12   14 1   
    16   11   15 1   
    17   10   16 1   
    18    3   17 1   
    19    1   18 1   
    20    2   19 1   
    21    5   20 1   
    22    9   21 1   
    23   13   22 1   
@<TRIPOS>SUBSTRUCTURE
     1 MOL         1 TEMP              0 ****  ****    0 ROOT
