@<TRIPOS>MOLECULE
(2S)-1,2-dichloropropane
   11    10     1     0     0
SMALL
No Charge or Current Charge


@<TRIPOS>ATOM
      1 C1          0.8720   -0.5290    0.4010 c3        1 MOL     -0.105200
      2 C2          1.2560    0.0260    1.7670 c3        1 MOL      0.048300
      3 H1          1.3860    1.1100    1.6750 h1        1 MOL      0.075000
      4 C3          0.2160   -0.2400    2.8570 c3        1 MOL      0.022400
      5 Cl1        -0.0990   -1.9710    3.1380 cl        1 MOL     -0.171400
      6 Cl2         2.8550   -0.6170    2.2520 cl        1 MOL     -0.184800
      7 H2          0.7260   -1.6140    0.4190 hc        1 MOL      0.055200
      8 H3         -0.0610   -0.0760    0.0480 hc        1 MOL      0.055200
      9 H4          1.6480   -0.3040   -0.3390 hc        1 MOL      0.055200
     10 H5          0.5510    0.1830    3.8090 h1        1 MOL      0.075000
     11 H6         -0.7400    0.2290    2.6040 h1        1 MOL      0.075000
@<TRIPOS>BOND
     1    1    2 1   
     2    2    3 1   
     3    2    4 1   
     4    4    5 1   
     5    2    6 1   
     6    1    7 1   
     7    1    8 1   
     8    1    9 1   
     9    4   10 1   
    10    4   11 1   
@<TRIPOS>SUBSTRUCTURE
     1 MOL         1 TEMP              0 ****  ****    0 ROOT
