@<TRIPOS>MOLECULE
(E)-hept-2-ene
   21    20     1     0     0
SMALL
No Charge or Current Charge


@<TRIPOS>ATOM
      1 C1          2.5440   -2.3090    4.0250 c3        1 MOL     -0.092100
      2 C2          2.7860   -2.0760    2.5420 c3        1 MOL     -0.080000
      3 C3          1.8090   -1.0430    1.9740 c3        1 MOL     -0.076400
      4 C4          2.0180   -0.7780    0.4790 c3        1 MOL     -0.048800
      5 C5          1.0590    0.2350   -0.0760 c2        1 MOL     -0.169800
      6 C6          1.4390    1.3900   -0.6420 c2        1 MOL     -0.168700
      7 C7          0.4860    2.3960   -1.1970 c3        1 MOL     -0.065500
      8 H1          3.2460   -3.0480    4.4260 hc        1 MOL      0.033200
      9 H2          2.6620   -1.3810    4.5930 hc        1 MOL      0.033200
     10 H3          1.5280   -2.6810    4.1900 hc        1 MOL      0.033200
     11 H4          2.6760   -3.0260    2.0070 hc        1 MOL      0.038200
     12 H5          3.8200   -1.7410    2.4020 hc        1 MOL      0.038200
     13 H6          0.7830   -1.4030    2.1190 hc        1 MOL      0.040500
     14 H7          1.8960   -0.1040    2.5350 hc        1 MOL      0.040500
     15 H8          1.8700   -1.7170   -0.0680 hc        1 MOL      0.043600
     16 H9          3.0570   -0.4740    0.3030 hc        1 MOL      0.043600
     17 H10         0.0010   -0.0060   -0.0120 ha        1 MOL      0.119300
     18 H11         2.4960    1.6310   -0.7110 ha        1 MOL      0.118200
     19 H12         0.2040    3.1120   -0.4180 hc        1 MOL      0.039800
     20 H13        -0.4210    1.8950   -1.5490 hc        1 MOL      0.039800
     21 H14         0.9150    2.9550   -2.0350 hc        1 MOL      0.039800
@<TRIPOS>BOND
     1    1    2 1   
     2    2    3 1   
     3    3    4 1   
     4    4    5 1   
     5    5    6 2   
     6    6    7 1   
     7    1    8 1   
     8    1    9 1   
     9    1   10 1   
    10    2   11 1   
    11    2   12 1   
    12    3   13 1   
    13    3   14 1   
    14    4   15 1   
    15    4   16 1   
    16    5   17 1   
    17    6   18 1   
    18    7   19 1   
    19    7   20 1   
    20    7   21 1   
@<TRIPOS>SUBSTRUCTURE
     1 MOL         1 TEMP              0 ****  ****    0 ROOT
