@<TRIPOS>MOLECULE
(2R)-2-bromo-2-chloro-1,1,1-trifluoro-ethane
    8     7     1     0     0
SMALL
No Charge or Current Charge


@<TRIPOS>ATOM
      1 C1          0.2380    0.2160    0.6570 c3        1 MOL      0.023600
      2 H1          1.2960    0.0700    0.8890 h2        1 MOL      0.133300
      3 C2         -0.1050   -0.3250   -0.7100 c3        1 MOL      0.640500
      4 F1          0.1560   -1.6510   -0.7800 f         1 MOL     -0.217700
      5 F2         -1.4070   -0.1480   -1.0190 f         1 MOL     -0.217700
      6 F3          0.6330    0.2730   -1.6720 f         1 MOL     -0.217700
      7 Cl1        -0.7280   -0.5710    1.9190 cl        1 MOL     -0.078800
      8 Br1        -0.0830    2.1360    0.7170 br        1 MOL     -0.065400
@<TRIPOS>BOND
     1    1    2 1   
     2    1    3 1   
     3    3    4 1   
     4    3    5 1   
     5    3    6 1   
     6    1    7 1   
     7    1    8 1   
@<TRIPOS>SUBSTRUCTURE
     1 MOL         1 TEMP              0 ****  ****    0 ROOT
