@<TRIPOS>MOLECULE
hydrazine
    6     5     1     0     0
SMALL
No Charge or Current Charge


@<TRIPOS>ATOM
      1 N1         -0.8080    0.5700   -0.2480 n3        1 MOL     -0.670700
      2 N2         -1.9600   -0.2580   -0.3170 n3        1 MOL     -0.670700
      3 H1         -0.9050    1.2120    0.5370 hn        1 MOL      0.335300
      4 H2          0.0080   -0.0070   -0.0440 hn        1 MOL      0.335300
      5 H3         -2.7890    0.3280   -0.4090 hn        1 MOL      0.335300
      6 H4         -2.0640   -0.7570    0.5650 hn        1 MOL      0.335300
@<TRIPOS>BOND
     1    1    2 1   
     2    1    3 1   
     3    1    4 1   
     4    2    5 1   
     5    2    6 1   
@<TRIPOS>SUBSTRUCTURE
     1 MOL         1 TEMP              0 ****  ****    0 ROOT
