@<TRIPOS>MOLECULE
2,4-dimethylphenol
   19    19     1     0     0
SMALL
No Charge or Current Charge


@<TRIPOS>ATOM
      1 C1          1.9320   -1.0140   -1.6030 c3        1 MOL     -0.048000
      2 C2          1.8850   -1.0360   -0.1120 ca        1 MOL     -0.108600
      3 C3          2.9210   -1.6310    0.6080 ca        1 MOL     -0.097300
      4 C4          2.8780   -1.6520    2.0020 ca        1 MOL     -0.207300
      5 C5          1.8000   -1.0790    2.6760 ca        1 MOL      0.118300
      6 C6          0.7640   -0.4840    1.9550 ca        1 MOL     -0.095300
      7 C7          0.8070   -0.4630    0.5610 ca        1 MOL     -0.101400
      8 C8         -0.3990    0.1340    2.6600 c3        1 MOL     -0.044700
      9 O1          1.7730   -1.1100    4.0370 oh        1 MOL     -0.498500
     10 H1          2.4400   -0.1080   -1.9480 hc        1 MOL      0.042200
     11 H2          2.4650   -1.8880   -1.9910 hc        1 MOL      0.042200
     12 H3          0.9220   -1.0360   -2.0260 hc        1 MOL      0.042200
     13 H4          3.7650   -2.0800    0.0910 ha        1 MOL      0.132100
     14 H5          3.6890   -2.1160    2.5570 ha        1 MOL      0.131400
     15 H6         -0.0020   -0.0010   -0.0010 ha        1 MOL      0.133900
     16 H7         -0.1990    1.1910    2.8680 hc        1 MOL      0.047000
     17 H8         -1.3120    0.0640    2.0550 hc        1 MOL      0.047000
     18 H9         -0.6040   -0.3770    3.6090 hc        1 MOL      0.047000
     19 H10         2.5630   -1.5580    4.3780 ho        1 MOL      0.417800
@<TRIPOS>BOND
     1    1    2 1   
     2    2    7 ar  
     3    2    3 ar  
     4    3    4 ar  
     5    4    5 ar  
     6    5    6 ar  
     7    6    7 ar  
     8    6    8 1   
     9    5    9 1   
    10    1   10 1   
    11    1   11 1   
    12    1   12 1   
    13    3   13 1   
    14    4   14 1   
    15    7   15 1   
    16    8   16 1   
    17    8   17 1   
    18    8   18 1   
    19    9   19 1   
@<TRIPOS>SUBSTRUCTURE
     1 MOL         1 TEMP              0 ****  ****    0 ROOT
