@<TRIPOS>MOLECULE
propionic
   11    10     1     0     0
SMALL
No Charge or Current Charge


@<TRIPOS>ATOM
      1 C1          0.7690   -0.5810   -0.5200 c3        1 MOL     -0.088400
      2 C2          0.3920   -0.8060   -1.9740 c3        1 MOL     -0.174600
      3 C3         -0.9080   -1.5560   -2.1110 c         1 MOL      0.623000
      4 O1         -1.6110   -1.9550   -1.1940 o         1 MOL     -0.481600
      5 O2         -1.2060   -1.7350   -3.4230 oh        1 MOL     -0.586800
      6 H1          1.7150   -0.0350   -0.4520 hc        1 MOL      0.050400
      7 H2          0.0000    0.0000   -0.0000 hc        1 MOL      0.050400
      8 H3          0.8830   -1.5330    0.0090 hc        1 MOL      0.050400
      9 H4          0.2900    0.1610   -2.4760 hc        1 MOL      0.067900
     10 H5          1.1800   -1.3850   -2.4670 hc        1 MOL      0.067900
     11 H6         -0.5240   -1.3450   -4.0100 ho        1 MOL      0.421400
@<TRIPOS>BOND
     1    1    2 1   
     2    2    3 1   
     3    3    4 2   
     4    3    5 1   
     5    1    6 1   
     6    1    7 1   
     7    1    8 1   
     8    2    9 1   
     9    2   10 1   
    10    5   11 1   
@<TRIPOS>SUBSTRUCTURE
     1 MOL         1 TEMP              0 ****  ****    0 ROOT
