@<TRIPOS>MOLECULE
2-chlorophenol
   13    13     1     0     0
SMALL
No Charge or Current Charge


@<TRIPOS>ATOM
      1 C1          1.8850   -1.0360   -0.1120 ca        1 MOL     -0.093600
      2 C2          2.9210   -1.6310    0.6080 ca        1 MOL     -0.159200
      3 C3          2.8780   -1.6520    2.0020 ca        1 MOL     -0.085000
      4 C4          1.8000   -1.0790    2.6760 ca        1 MOL     -0.070900
      5 C5          0.7640   -0.4840    1.9550 ca        1 MOL      0.137100
      6 C6          0.8070   -0.4630    0.5610 ca        1 MOL     -0.151800
      7 O1         -0.3020    0.0840    2.5870 oh        1 MOL     -0.491900
      8 Cl1         1.7730   -1.1190    4.4000 cl        1 MOL     -0.096400
      9 H1          1.9190   -1.0200   -1.1980 ha        1 MOL      0.139500
     10 H2          3.7610   -2.0770    0.0840 ha        1 MOL      0.138800
     11 H3          3.6930   -2.1190    2.5490 ha        1 MOL      0.148100
     12 H4          0.0030   -0.0020   -0.0070 ha        1 MOL      0.155200
     13 H5         -0.2050   -0.0010    3.5480 ho        1 MOL      0.430300
@<TRIPOS>BOND
     1    1    6 ar  
     2    1    2 ar  
     3    2    3 ar  
     4    3    4 ar  
     5    4    5 ar  
     6    5    6 ar  
     7    5    7 1   
     8    4    8 1   
     9    1    9 1   
    10    2   10 1   
    11    3   11 1   
    12    6   12 1   
    13    7   13 1   
@<TRIPOS>SUBSTRUCTURE
     1 MOL         1 TEMP              0 ****  ****    0 ROOT
