@<TRIPOS>MOLECULE
1,4-dimethylnaphthalene
   24    25     1     0     0
SMALL
No Charge or Current Charge


@<TRIPOS>ATOM
      1 C1         -1.0090   -4.3880    1.0440 c3        1 MOL     -0.055500
      2 C2         -0.0480   -3.3540    0.5450 ca        1 MOL     -0.068400
      3 C3         -0.4970   -2.0340    0.4940 ca        1 MOL     -0.128900
      4 C4          0.3500   -1.0280    0.0390 ca        1 MOL     -0.128900
      5 C5          1.6480   -1.3370   -0.3660 ca        1 MOL     -0.068400
      6 C6          2.1170   -2.6600   -0.3220 ca        1 MOL     -0.026700
      7 C7          1.2560   -3.6840    0.1400 ca        1 MOL     -0.026700
      8 C8          1.7240   -5.0070    0.1850 ca        1 MOL     -0.119300
      9 C9          3.0230   -5.3170   -0.2210 ca        1 MOL     -0.129600
     10 C10         3.8690   -4.3100   -0.6760 ca        1 MOL     -0.129600
     11 C11         3.4210   -2.9900   -0.7270 ca        1 MOL     -0.119300
     12 C12         2.5060   -0.2060   -0.8450 c3        1 MOL     -0.055400
     13 H1         -0.9140   -4.4950    2.1290 hc        1 MOL      0.044700
     14 H2         -2.0410   -4.1100    0.8050 hc        1 MOL      0.044700
     15 H3         -0.8190   -5.3590    0.5740 hc        1 MOL      0.044700
     16 H4         -1.5060   -1.7800    0.8070 ha        1 MOL      0.131000
     17 H5         -0.0110   -0.0030    0.0040 ha        1 MOL      0.131000
     18 H6          1.0930   -5.8210    0.5340 ha        1 MOL      0.132200
     19 H7          3.3730   -6.3440   -0.1820 ha        1 MOL      0.131000
     20 H8          4.8800   -4.5520   -0.9920 ha        1 MOL      0.131000
     21 H9          4.1120   -2.2320   -1.0880 ha        1 MOL      0.132200
     22 H10         3.0570    0.2290   -0.0050 hc        1 MOL      0.044700
     23 H11         3.2240   -0.5490   -1.5980 hc        1 MOL      0.044700
     24 H12         1.8980    0.5770   -1.3110 hc        1 MOL      0.044700
@<TRIPOS>BOND
     1    1    2 1   
     2    2    7 ar  
     3    2    3 ar  
     4    3    4 ar  
     5    4    5 ar  
     6    5    6 ar  
     7    6   11 ar  
     8    6    7 ar  
     9    7    8 ar  
    10    8    9 ar  
    11    9   10 ar  
    12   10   11 ar  
    13    5   12 1   
    14    1   13 1   
    15    1   14 1   
    16    1   15 1   
    17    3   16 1   
    18    4   17 1   
    19    8   18 1   
    20    9   19 1   
    21   10   20 1   
    22   11   21 1   
    23   12   22 1   
    24   12   23 1   
    25   12   24 1   
@<TRIPOS>SUBSTRUCTURE
     1 MOL         1 TEMP              0 ****  ****    0 ROOT
