@<TRIPOS>MOLECULE
1,1,1,2,2-pentachloroethane
    8     7     1     0     0
SMALL
No Charge or Current Charge


@<TRIPOS>ATOM
      1 C1         -0.4930    0.4030   -0.4760 c3        1 MOL      0.117500
      2 C2          0.4490   -0.4710    0.3770 c3        1 MOL      0.228200
      3 Cl1         1.8650   -1.0080   -0.5970 cl        1 MOL     -0.088300
      4 Cl2        -0.3990   -1.9620    0.9250 cl        1 MOL     -0.088300
      5 Cl3         1.0590    0.3920    1.8270 cl        1 MOL     -0.088300
      6 Cl4        -1.9280    0.9730    0.4360 cl        1 MOL     -0.102400
      7 Cl5         0.3270    1.8410   -1.1650 cl        1 MOL     -0.102400
      8 H1         -0.8780   -0.1670   -1.3280 h2        1 MOL      0.124000
@<TRIPOS>BOND
     1    1    2 1   
     2    2    3 1   
     3    2    4 1   
     4    2    5 1   
     5    1    6 1   
     6    1    7 1   
     7    1    8 1   
@<TRIPOS>SUBSTRUCTURE
     1 MOL         1 TEMP              0 ****  ****    0 ROOT
