@<TRIPOS>MOLECULE
dibromomethane
    5     4     1     0     0
SMALL
No Charge or Current Charge


@<TRIPOS>ATOM
      1 C1          0.1690   -0.0210    0.0450 c3        1 MOL      0.010500
      2 Br1        -0.4990   -0.3020   -1.7480 br        1 MOL     -0.109300
      3 Br2        -1.2000    0.5170    1.2990 br        1 MOL     -0.109300
      4 H1          0.9260    0.7640    0.0070 h2        1 MOL      0.104000
      5 H2          0.6040   -0.9590    0.3970 h2        1 MOL      0.104000
@<TRIPOS>BOND
     1    1    2 1   
     2    1    3 1   
     3    1    4 1   
     4    1    5 1   
@<TRIPOS>SUBSTRUCTURE
     1 MOL         1 TEMP              0 ****  ****    0 ROOT
