@<TRIPOS>MOLECULE
isopropenylbenzene
   19    19     1     0     0
SMALL
No Charge or Current Charge


@<TRIPOS>ATOM
      1 C1          1.9300    0.2620   -2.3740 c3        1 MOL     -0.057600
      2 C2          1.9300   -1.0140   -1.5660 ce        1 MOL     -0.065300
      3 C3          1.9830   -2.1960   -2.2090 c2        1 MOL     -0.218500
      4 C4          1.8850   -1.0360   -0.1120 ca        1 MOL     -0.052500
      5 C5          2.9210   -1.6310    0.6080 ca        1 MOL     -0.118200
      6 C6          2.8780   -1.6520    2.0020 ca        1 MOL     -0.131200
      7 C7          1.8000   -1.0790    2.6760 ca        1 MOL     -0.129600
      8 C8          0.7640   -0.4840    1.9550 ca        1 MOL     -0.131200
      9 C9          0.8070   -0.4630    0.5610 ca        1 MOL     -0.118200
     10 H1          0.9020    0.5550   -2.6140 hc        1 MOL      0.044100
     11 H2          2.3980    1.0750   -1.8090 hc        1 MOL      0.044100
     12 H3          2.4730    0.1580   -3.3190 hc        1 MOL      0.044100
     13 H4          2.0000   -3.1470   -1.6840 ha        1 MOL      0.114800
     14 H5          2.0220   -2.2450   -3.2930 ha        1 MOL      0.114800
     15 H6          3.7680   -2.0820    0.0980 ha        1 MOL      0.134100
     16 H7          3.6850   -2.1150    2.5630 ha        1 MOL      0.131000
     17 H8          1.7660   -1.0950    3.7610 ha        1 MOL      0.130400
     18 H9         -0.0760   -0.0380    2.4800 ha        1 MOL      0.131000
     19 H10        -0.0090    0.0040    0.0130 ha        1 MOL      0.134100
@<TRIPOS>BOND
     1    1    2 1   
     2    2    3 2   
     3    2    4 1   
     4    4    9 ar  
     5    4    5 ar  
     6    5    6 ar  
     7    6    7 ar  
     8    7    8 ar  
     9    8    9 ar  
    10    1   10 1   
    11    1   11 1   
    12    1   12 1   
    13    3   13 1   
    14    3   14 1   
    15    5   15 1   
    16    6   16 1   
    17    7   17 1   
    18    8   18 1   
    19    9   19 1   
@<TRIPOS>SUBSTRUCTURE
     1 MOL         1 TEMP              0 ****  ****    0 ROOT
