@<TRIPOS>MOLECULE
4-methoxyaniline
   18    18     1     0     0
SMALL
No Charge or Current Charge


@<TRIPOS>ATOM
      1 C1          0.8350   -0.3920   -2.1380 c3        1 MOL      0.112200
      2 O1          1.9270   -1.0160   -1.4730 os        1 MOL     -0.325500
      3 C2          1.8850   -1.0360   -0.1120 ca        1 MOL      0.080800
      4 C3          2.9210   -1.6310    0.6080 ca        1 MOL     -0.142500
      5 C4          2.8780   -1.6520    2.0020 ca        1 MOL     -0.155700
      6 C5          1.8000   -1.0790    2.6760 ca        1 MOL      0.098800
      7 C6          0.7640   -0.4840    1.9550 ca        1 MOL     -0.155700
      8 C7          0.8070   -0.4630    0.5610 ca        1 MOL     -0.142500
      9 N1          1.7560   -1.1000    4.0850 nh        1 MOL     -0.809000
     10 H1          0.9880   -0.4420   -3.2180 h1        1 MOL      0.042200
     11 H2          0.7590    0.6500   -1.8170 h1        1 MOL      0.042200
     12 H3         -0.0870   -0.9180   -1.8780 h1        1 MOL      0.042200
     13 H4          3.7640   -2.0790    0.0890 ha        1 MOL      0.141800
     14 H5          3.6910   -2.1180    2.5540 ha        1 MOL      0.133300
     15 H6         -0.0820   -0.0350    2.4700 ha        1 MOL      0.133300
     16 H7         -0.0030    0.0020    0.0050 ha        1 MOL      0.141800
     17 H8          1.0020   -0.6440    4.5570 hn        1 MOL      0.381200
     18 H9          2.5270   -1.4870    4.5910 hn        1 MOL      0.381200
@<TRIPOS>BOND
     1    1    2 1   
     2    2    3 1   
     3    3    8 ar  
     4    3    4 ar  
     5    4    5 ar  
     6    5    6 ar  
     7    6    7 ar  
     8    7    8 ar  
     9    6    9 1   
    10    1   10 1   
    11    1   11 1   
    12    1   12 1   
    13    4   13 1   
    14    5   14 1   
    15    7   15 1   
    16    8   16 1   
    17    9   17 1   
    18    9   18 1   
@<TRIPOS>SUBSTRUCTURE
     1 MOL         1 TEMP              0 ****  ****    0 ROOT
