@<TRIPOS>MOLECULE
cumene
   21    21     1     0     0
SMALL
No Charge or Current Charge


@<TRIPOS>ATOM
      1 C1          2.6350    0.2400   -2.1260 c3        1 MOL     -0.087900
      2 C2          1.9310   -1.0140   -1.6030 c3        1 MOL     -0.026400
      3 C3          0.5330   -1.1480   -2.2110 c3        1 MOL     -0.087900
      4 C4          1.8850   -1.0360   -0.1120 ca        1 MOL     -0.071900
      5 C5          2.9210   -1.6310    0.6080 ca        1 MOL     -0.127700
      6 C6          2.8780   -1.6520    2.0020 ca        1 MOL     -0.129100
      7 C7          1.8000   -1.0790    2.6760 ca        1 MOL     -0.133900
      8 C8          0.7640   -0.4840    1.9550 ca        1 MOL     -0.129100
      9 C9          0.8070   -0.4630    0.5610 ca        1 MOL     -0.127700
     10 H1          3.6390    0.3540   -1.7020 hc        1 MOL      0.036500
     11 H2          2.0630    1.1380   -1.8690 hc        1 MOL      0.036500
     12 H3          2.7360    0.2070   -3.2160 hc        1 MOL      0.036500
     13 H4          2.5150   -1.8780   -1.9470 hc        1 MOL      0.050300
     14 H5          0.0270   -2.0450   -1.8380 hc        1 MOL      0.036500
     15 H6          0.5940   -1.2270   -3.3020 hc        1 MOL      0.036500
     16 H7         -0.1010   -0.2850   -1.9760 hc        1 MOL      0.036500
     17 H8          3.7650   -2.0800    0.0910 ha        1 MOL      0.131800
     18 H9          3.6850   -2.1150    2.5630 ha        1 MOL      0.129400
     19 H10         1.7660   -1.0950    3.7610 ha        1 MOL      0.129800
     20 H11        -0.0760   -0.0380    2.4790 ha        1 MOL      0.129400
     21 H12        -0.0050    0.0030    0.0080 ha        1 MOL      0.131800
@<TRIPOS>BOND
     1    1    2 1   
     2    2    3 1   
     3    2    4 1   
     4    4    9 ar  
     5    4    5 ar  
     6    5    6 ar  
     7    6    7 ar  
     8    7    8 ar  
     9    8    9 ar  
    10    1   10 1   
    11    1   11 1   
    12    1   12 1   
    13    2   13 1   
    14    3   14 1   
    15    3   15 1   
    16    3   16 1   
    17    5   17 1   
    18    6   18 1   
    19    7   19 1   
    20    8   20 1   
    21    9   21 1   
@<TRIPOS>SUBSTRUCTURE
     1 MOL         1 TEMP              0 ****  ****    0 ROOT
