@<TRIPOS>MOLECULE
N-(cyclopropylmethyl)-2,6-dinitro-N-propyl-4-(trifluoromethyl)aniline
   40    41     1     0     0
SMALL
No Charge or Current Charge


@<TRIPOS>ATOM
      1 C1          3.4480    3.6060   -0.0290 c3        1 MOL     -0.089200
      2 C2          3.6340    2.8450   -1.3340 c3        1 MOL     -0.109200
      3 C3          2.6190    1.7220   -1.5110 c3        1 MOL      0.242400
      4 N1          2.8010    1.0090   -2.7450 nh        1 MOL     -0.786600
      5 C4          2.7100    1.7480   -4.0090 c3        1 MOL      0.265100
      6 C5          1.3670    2.3540   -4.1470 cx        1 MOL     -0.156900
      7 C6          1.1840    3.8470   -4.0340 cx        1 MOL     -0.125400
      8 C7          1.0150    3.1700   -5.3650 cx        1 MOL     -0.125400
      9 C8          3.0770   -0.3690   -2.7670 ca        1 MOL      0.299600
     10 C9          4.3970   -0.8170   -2.7390 ca        1 MOL     -0.175000
     11 C10         4.6710   -2.1850   -2.7610 ca        1 MOL     -0.015200
     12 C11         3.6230   -3.1050   -2.8100 ca        1 MOL     -0.174200
     13 C12         2.3030   -2.6570   -2.8380 ca        1 MOL     -0.015200
     14 C13         2.0290   -1.2890   -2.8160 ca        1 MOL     -0.175000
     15 N2          0.6720   -0.8620   -2.8450 no        1 MOL      0.318900
     16 O1          0.1260   -0.6560   -3.9550 o         1 MOL     -0.178500
     17 O2          0.0640   -0.7040   -1.7610 o         1 MOL     -0.178500
     18 C14         3.9150   -4.5670   -2.8330 c3        1 MOL      0.694200
     19 F1          5.2490   -4.8590   -2.8020 f         1 MOL     -0.224600
     20 F2          3.3760   -5.2490   -1.7800 f         1 MOL     -0.224600
     21 F3          3.4330   -5.1810   -3.9530 f         1 MOL     -0.224600
     22 N3          5.4870    0.0970   -2.6880 no        1 MOL      0.318900
     23 O3          5.9190    0.4610   -1.5690 o         1 MOL     -0.178500
     24 O4          5.9810    0.5100   -3.7630 o         1 MOL     -0.178500
     25 H1          4.1910    4.4040    0.0690 hc        1 MOL      0.037600
     26 H2          2.4540    4.0630    0.0020 hc        1 MOL      0.037600
     27 H3          3.5380    2.9420    0.8370 hc        1 MOL      0.037600
     28 H4          4.6430    2.4150   -1.3480 hc        1 MOL      0.051000
     29 H5          3.5690    3.5470   -2.1730 hc        1 MOL      0.051000
     30 H6          2.7220    0.9930   -0.7020 h1        1 MOL      0.055800
     31 H7          1.5940    2.1070   -1.4950 h1        1 MOL      0.055800
     32 H8          3.4910    2.5010   -3.9770 h1        1 MOL      0.055400
     33 H9          2.9160    1.0290   -4.7950 h1        1 MOL      0.055400
     34 H10         0.5830    1.7270   -3.7290 hc        1 MOL      0.095500
     35 H11         0.2940    4.2130   -3.5380 hc        1 MOL      0.074100
     36 H12         2.0630    4.4620   -3.8900 hc        1 MOL      0.074100
     37 H13         0.0110    3.0830   -5.7630 hc        1 MOL      0.074100
     38 H14         1.7810    3.3320   -6.1140 hc        1 MOL      0.074100
     39 H15         5.6990   -2.5400   -2.7380 ha        1 MOL      0.183600
     40 H16         1.4900   -3.3790   -2.8780 ha        1 MOL      0.183600
@<TRIPOS>BOND
     1    1    2 1   
     2    2    3 1   
     3    3    4 1   
     4    4    5 1   
     5    5    6 1   
     6    6    8 1   
     7    6    7 1   
     8    7    8 1   
     9    4    9 1   
    10    9   14 ar  
    11    9   10 ar  
    12   10   11 ar  
    13   11   12 ar  
    14   12   13 ar  
    15   13   14 ar  
    16   14   15 1   
    17   15   16 1   
    18   15   17 1   
    19   12   18 1   
    20   18   19 1   
    21   18   20 1   
    22   18   21 1   
    23   10   22 1   
    24   22   23 1   
    25   22   24 1   
    26    1   25 1   
    27    1   26 1   
    28    1   27 1   
    29    2   28 1   
    30    2   29 1   
    31    3   30 1   
    32    3   31 1   
    33    5   32 1   
    34    5   33 1   
    35    6   34 1   
    36    7   35 1   
    37    7   36 1   
    38    8   37 1   
    39    8   38 1   
    40   11   39 1   
    41   13   40 1   
@<TRIPOS>SUBSTRUCTURE
     1 MOL         1 TEMP              0 ****  ****    0 ROOT
