@<TRIPOS>MOLECULE
cyclohexanone
   17    17     1     0     0
SMALL
No Charge or Current Charge


@<TRIPOS>ATOM
      1 C1          0.9260    0.3340   -1.5530 c3        1 MOL     -0.083000
      2 C2          1.1130    1.2060   -0.3130 c3        1 MOL     -0.072500
      3 C3         -0.1460    1.2510    0.5410 c3        1 MOL     -0.181100
      4 C4         -0.6340   -0.1480    0.8460 c         1 MOL      0.569000
      5 O1         -1.0070   -0.4690    1.9740 o         1 MOL     -0.532900
      6 C5         -0.7630   -1.0890   -0.3300 c3        1 MOL     -0.181100
      7 C6          0.5100   -1.0830   -1.1650 c3        1 MOL     -0.072500
      8 H1          1.8620    0.2990   -2.1220 hc        1 MOL      0.045000
      9 H2          0.1660    0.7780   -2.2070 hc        1 MOL      0.045000
     10 H3          1.9450    0.8090    0.2820 hc        1 MOL      0.047400
     11 H4          1.3910    2.2220   -0.6140 hc        1 MOL      0.047400
     12 H5          0.0620    1.7720    1.4820 hc        1 MOL      0.068700
     13 H6         -0.9500    1.7850    0.0240 hc        1 MOL      0.068700
     14 H7         -0.9600   -2.1010    0.0390 hc        1 MOL      0.068700
     15 H8         -1.6240   -0.7700   -0.9280 hc        1 MOL      0.068700
     16 H9          1.3230   -1.5530   -0.5960 hc        1 MOL      0.047400
     17 H10         0.3610   -1.6860   -2.0680 hc        1 MOL      0.047400
@<TRIPOS>BOND
     1    1    7 1   
     2    1    2 1   
     3    2    3 1   
     4    3    4 1   
     5    4    5 2   
     6    4    6 1   
     7    6    7 1   
     8    1    8 1   
     9    1    9 1   
    10    2   10 1   
    11    2   11 1   
    12    3   12 1   
    13    3   13 1   
    14    6   14 1   
    15    6   15 1   
    16    7   16 1   
    17    7   17 1   
@<TRIPOS>SUBSTRUCTURE
     1 MOL         1 TEMP              0 ****  ****    0 ROOT
