@<TRIPOS>MOLECULE
ethyl
   26    25     1     0     0
SMALL
No Charge or Current Charge


@<TRIPOS>ATOM
      1 C1          0.0400    1.0640    0.1430 c3        1 MOL     -0.094400
      2 C2         -0.1600    1.4360    1.6040 c3        1 MOL     -0.084500
      3 C3          0.9240    0.8240    2.4920 c3        1 MOL     -0.081800
      4 C4          0.7150    1.2020    3.9620 c3        1 MOL     -0.074500
      5 C5          1.7850    0.6050    4.8760 c3        1 MOL     -0.128500
      6 C6          1.5950    0.9680    6.3320 c         1 MOL      0.637000
      7 O1          0.6920    1.6660    6.7720 o         1 MOL     -0.537600
      8 O2          2.6090    0.4180    7.0630 os        1 MOL     -0.453900
      9 C7          2.5830    0.7020    8.4650 c3        1 MOL      0.140100
     10 C8          3.7650    0.0230    9.1160 c3        1 MOL     -0.105700
     11 H1         -0.7400    1.5060   -0.4840 hc        1 MOL      0.032700
     12 H2          1.0120    1.4120   -0.2200 hc        1 MOL      0.032700
     13 H3          0.0010   -0.0230    0.0200 hc        1 MOL      0.032700
     14 H4         -1.1480    1.0890    1.9310 hc        1 MOL      0.042800
     15 H5         -0.1500    2.5270    1.7020 hc        1 MOL      0.042800
     16 H6          0.9130   -0.2660    2.3780 hc        1 MOL      0.044400
     17 H7          1.9090    1.1730    2.1600 hc        1 MOL      0.044400
     18 H8          0.7510    2.2950    4.0550 hc        1 MOL      0.054200
     19 H9         -0.2820    0.8870    4.2890 hc        1 MOL      0.054200
     20 H10         1.7880   -0.4870    4.7760 hc        1 MOL      0.078500
     21 H11         2.7680    0.9840    4.5740 hc        1 MOL      0.078500
     22 H12         2.6340    1.7830    8.5950 h1        1 MOL      0.052800
     23 H13         1.6440    0.3270    8.8720 h1        1 MOL      0.052800
     24 H14         3.7750    0.2200   10.1920 hc        1 MOL      0.046700
     25 H15         3.7290   -1.0600    8.9560 hc        1 MOL      0.046700
     26 H16         4.7060    0.3780    8.6830 hc        1 MOL      0.046700
@<TRIPOS>BOND
     1    1    2 1   
     2    2    3 1   
     3    3    4 1   
     4    4    5 1   
     5    5    6 1   
     6    6    7 2   
     7    6    8 1   
     8    8    9 1   
     9    9   10 1   
    10    1   11 1   
    11    1   12 1   
    12    1   13 1   
    13    2   14 1   
    14    2   15 1   
    15    3   16 1   
    16    3   17 1   
    17    4   18 1   
    18    4   19 1   
    19    5   20 1   
    20    5   21 1   
    21    9   22 1   
    22    9   23 1   
    23   10   24 1   
    24   10   25 1   
    25   10   26 1   
@<TRIPOS>SUBSTRUCTURE
     1 MOL         1 TEMP              0 ****  ****    0 ROOT
