@<TRIPOS>MOLECULE
benzamide
   16    16     1     0     0
SMALL
No Charge or Current Charge


@<TRIPOS>ATOM
      1 C1          1.8850   -1.0360   -0.1120 ca        1 MOL     -0.103400
      2 C2          2.9210   -1.6310    0.6080 ca        1 MOL     -0.143100
      3 C3          2.8780   -1.6520    2.0020 ca        1 MOL     -0.087300
      4 C4          1.8000   -1.0790    2.6760 ca        1 MOL     -0.139300
      5 C5          0.7640   -0.4840    1.9550 ca        1 MOL     -0.087300
      6 C6          0.8070   -0.4630    0.5610 ca        1 MOL     -0.143100
      7 C7          1.7550   -1.1010    4.1290 c         1 MOL      0.672200
      8 O1          0.7990   -0.6120    4.7560 o         1 MOL     -0.617100
      9 N1          2.8130   -1.7060    4.8000 n         1 MOL     -0.674100
     10 H1          1.9180   -1.0200   -1.1980 ha        1 MOL      0.139000
     11 H2          3.7610   -2.0780    0.0840 ha        1 MOL      0.134600
     12 H3          3.6910   -2.1180    2.5530 ha        1 MOL      0.145000
     13 H4         -0.0810   -0.0340    2.4700 ha        1 MOL      0.145000
     14 H5          0.0000    0.0000   -0.0000 ha        1 MOL      0.134600
     15 H6          3.5920   -2.1390    4.3160 hn        1 MOL      0.312100
     16 H7          2.8320   -1.7680    5.8130 hn        1 MOL      0.312100
@<TRIPOS>BOND
     1    1    6 ar  
     2    1    2 ar  
     3    2    3 ar  
     4    3    4 ar  
     5    4    5 ar  
     6    5    6 ar  
     7    4    7 1   
     8    7    8 2   
     9    7    9 1   
    10    1   10 1   
    11    2   11 1   
    12    3   12 1   
    13    5   13 1   
    14    6   14 1   
    15    9   15 1   
    16    9   16 1   
@<TRIPOS>SUBSTRUCTURE
     1 MOL         1 TEMP              0 ****  ****    0 ROOT
