@<TRIPOS>MOLECULE
ethoxybenzene
   19    19     1     0     0
SMALL
No Charge or Current Charge


@<TRIPOS>ATOM
      1 C1          0.8500   -1.7230   -3.4870 c3        1 MOL     -0.103800
      2 C2          0.6770   -1.0300   -2.1520 c3        1 MOL      0.126200
      3 O1          1.9270   -1.0160   -1.4730 os        1 MOL     -0.334100
      4 C3          1.8850   -1.0360   -0.1120 ca        1 MOL      0.119600
      5 C4          2.9210   -1.6310    0.6080 ca        1 MOL     -0.173600
      6 C5          2.8780   -1.6520    2.0020 ca        1 MOL     -0.102800
      7 C6          1.8000   -1.0790    2.6760 ca        1 MOL     -0.159200
      8 C7          0.7640   -0.4840    1.9550 ca        1 MOL     -0.102800
      9 C8          0.8070   -0.4630    0.5610 ca        1 MOL     -0.173600
     10 H1         -0.0950   -1.7510   -4.0370 hc        1 MOL      0.047900
     11 H2          1.5980   -1.2060   -4.0960 hc        1 MOL      0.047900
     12 H3          1.2070   -2.7480   -3.3460 hc        1 MOL      0.047900
     13 H4         -0.0530   -1.5620   -1.5350 h1        1 MOL      0.040200
     14 H5          0.3420    0.0020   -2.2950 h1        1 MOL      0.040200
     15 H6          3.7640   -2.0780    0.0890 ha        1 MOL      0.141600
     16 H7          3.6850   -2.1140    2.5630 ha        1 MOL      0.132200
     17 H8          1.7670   -1.0930    3.7610 ha        1 MOL      0.132300
     18 H9         -0.0760   -0.0370    2.4800 ha        1 MOL      0.132200
     19 H10        -0.0030    0.0010    0.0050 ha        1 MOL      0.141600
@<TRIPOS>BOND
     1    1    2 1   
     2    2    3 1   
     3    3    4 1   
     4    4    9 ar  
     5    4    5 ar  
     6    5    6 ar  
     7    6    7 ar  
     8    7    8 ar  
     9    8    9 ar  
    10    1   10 1   
    11    1   11 1   
    12    1   12 1   
    13    2   13 1   
    14    2   14 1   
    15    5   15 1   
    16    6   16 1   
    17    7   17 1   
    18    8   18 1   
    19    9   19 1   
@<TRIPOS>SUBSTRUCTURE
     1 MOL         1 TEMP              0 ****  ****    0 ROOT
