@<TRIPOS>MOLECULE
cyclopropane
    9     9     1     0     0
SMALL
No Charge or Current Charge


@<TRIPOS>ATOM
      1 C1          0.5950   -0.7130    0.5570 cx        1 MOL     -0.136500
      2 C2          2.0780   -0.4930    0.6160 cx        1 MOL     -0.136500
      3 C3          1.5180   -1.6100   -0.2150 cx        1 MOL     -0.136500
      4 H1          0.0000    0.0000   -0.0000 hc        1 MOL      0.068300
      5 H2          0.1100   -1.1220    1.4340 hc        1 MOL      0.068300
      6 H3          2.4820    0.3680    0.0980 hc        1 MOL      0.068300
      7 H4          2.5910   -0.7540    1.5330 hc        1 MOL      0.068300
      8 H5          1.5450   -1.5010   -1.2920 hc        1 MOL      0.068300
      9 H6          1.6540   -2.6230    0.1430 hc        1 MOL      0.068300
@<TRIPOS>BOND
     1    1    3 1   
     2    1    2 1   
     3    2    3 1   
     4    1    4 1   
     5    1    5 1   
     6    2    6 1   
     7    2    7 1   
     8    3    8 1   
     9    3    9 1   
@<TRIPOS>SUBSTRUCTURE
     1 MOL         1 TEMP              0 ****  ****    0 ROOT
