@<TRIPOS>MOLECULE
hexa-1,5-diene
   16    15     1     0     0
SMALL
No Charge or Current Charge


@<TRIPOS>ATOM
      1 C1          0.1200    0.8570   -2.2200 c2        1 MOL     -0.222500
      2 C2         -0.6070    0.9280   -1.0990 c2        1 MOL     -0.163500
      3 C3         -2.0840    0.6650   -1.0380 c3        1 MOL     -0.050000
      4 C4         -2.8790    1.8750   -0.5370 c3        1 MOL     -0.050000
      5 C5         -2.7080    3.0840   -1.4110 c2        1 MOL     -0.163500
      6 C6         -2.2080    4.2500   -0.9870 c2        1 MOL     -0.222500
      7 H1          1.1860    1.0560   -2.2190 ha        1 MOL      0.110900
      8 H2         -0.3490    0.5960   -3.1630 ha        1 MOL      0.110900
      9 H3         -0.1060    1.1810   -0.1690 ha        1 MOL      0.119000
     10 H4         -2.2480   -0.1720   -0.3490 hc        1 MOL      0.047600
     11 H5         -2.4670    0.3430   -2.0150 hc        1 MOL      0.047600
     12 H6         -2.6060    2.1000    0.5020 hc        1 MOL      0.047600
     13 H7         -3.9450    1.6150   -0.5280 hc        1 MOL      0.047600
     14 H8         -3.0220    2.9980   -2.4480 ha        1 MOL      0.119000
     15 H9         -2.1020    5.0980   -1.6530 ha        1 MOL      0.110900
     16 H10        -1.8970    4.3700    0.0450 ha        1 MOL      0.110900
@<TRIPOS>BOND
     1    1    2 2   
     2    2    3 1   
     3    3    4 1   
     4    4    5 1   
     5    5    6 2   
     6    1    7 1   
     7    1    8 1   
     8    2    9 1   
     9    3   10 1   
    10    3   11 1   
    11    4   12 1   
    12    4   13 1   
    13    5   14 1   
    14    6   15 1   
    15    6   16 1   
@<TRIPOS>SUBSTRUCTURE
     1 MOL         1 TEMP              0 ****  ****    0 ROOT
