@<TRIPOS>MOLECULE
(2R,3R,4S,5S,6R)-6-(hydroxymethyl)tetrahydropyran-2,3,4,5-tetrol
   24    24     1     0     0
SMALL
No Charge or Current Charge


@<TRIPOS>ATOM
      1 C1          0.7250    1.2770   -2.3060 c3        1 MOL      0.135500
      2 C2         -0.0640   -0.0220   -2.1700 c3        1 MOL      0.147100
      3 H1         -0.8140   -0.0430   -2.9720 h1        1 MOL      0.070000
      4 C3         -0.7390   -0.1330   -0.8000 c3        1 MOL      0.120700
      5 H2         -0.0000   -0.0010    0.0000 h1        1 MOL      0.063600
      6 C4         -1.4240   -1.4910   -0.6420 c3        1 MOL      0.106700
      7 H3         -2.3430   -1.5280   -1.2400 h1        1 MOL      0.065900
      8 C5         -0.4800   -2.6340   -1.0160 c3        1 MOL      0.086400
      9 H4          0.2640   -2.7780   -0.2240 h1        1 MOL      0.075500
     10 C6          0.2030   -2.3730   -2.3590 c3        1 MOL      0.306100
     11 H5         -0.5180   -2.4250   -3.1830 h2        1 MOL      0.052100
     12 O1          0.8520   -1.1030   -2.3510 os        1 MOL     -0.436100
     13 O2          1.1660   -3.4060   -2.5660 oh        1 MOL     -0.601800
     14 O3         -1.2430   -3.8370   -1.0960 oh        1 MOL     -0.604100
     15 O4         -1.8240   -1.6380    0.7210 oh        1 MOL     -0.607100
     16 O5         -1.7090    0.9020   -0.6670 oh        1 MOL     -0.598000
     17 O6          1.3540    1.3040   -3.5780 oh        1 MOL     -0.593700
     18 H6          1.4940    1.3410   -1.5310 h1        1 MOL      0.047100
     19 H7          0.0590    2.1410   -2.2240 h1        1 MOL      0.047100
     20 H8          1.5860   -3.2220   -3.4200 ho        1 MOL      0.434300
     21 H9         -0.6210   -4.5410   -1.3340 ho        1 MOL      0.426300
     22 H10        -2.2530   -2.5040    0.7880 ho        1 MOL      0.427000
     23 H11        -2.1100    0.7940    0.2090 ho        1 MOL      0.425700
     24 H12         1.8450    2.1400   -3.6320 ho        1 MOL      0.403700
@<TRIPOS>BOND
     1    1    2 1   
     2    2    3 1   
     3    2   12 1   
     4    2    4 1   
     5    4    5 1   
     6    4    6 1   
     7    6    7 1   
     8    6    8 1   
     9    8    9 1   
    10    8   10 1   
    11   10   11 1   
    12   10   12 1   
    13   10   13 1   
    14    8   14 1   
    15    6   15 1   
    16    4   16 1   
    17    1   17 1   
    18    1   18 1   
    19    1   19 1   
    20   13   20 1   
    21   14   21 1   
    22   15   22 1   
    23   16   23 1   
    24   17   24 1   
@<TRIPOS>SUBSTRUCTURE
     1 MOL         1 TEMP              0 ****  ****    0 ROOT
