@<TRIPOS>MOLECULE
(2S)-2-(4-isobutylphenyl)propanoic
   33    33     1     0     0
SMALL
No Charge or Current Charge


@<TRIPOS>ATOM
      1 C1         -3.2530    2.2960   -4.3070 c3        1 MOL     -0.087200
      2 C2         -2.9840    3.5260   -3.4350 c3        1 MOL     -0.054000
      3 H1         -3.9490    4.0160   -3.2430 hc        1 MOL      0.085000
      4 C3         -2.3930    3.1750   -2.1110 ca        1 MOL     -0.090400
      5 C4         -1.1710    2.5050   -2.0490 ca        1 MOL     -0.109400
      6 C5         -0.6180    2.1770   -0.8110 ca        1 MOL     -0.126500
      7 C6         -1.2870    2.5200    0.3650 ca        1 MOL     -0.064800
      8 C7         -2.5090    3.1900    0.3020 ca        1 MOL     -0.126500
      9 C8         -3.0620    3.5170   -0.9360 ca        1 MOL     -0.109400
     10 C9         -0.6900    2.1630    1.7040 c3        1 MOL     -0.036100
     11 C10         0.2330    3.2520    2.2850 c3        1 MOL     -0.061900
     12 C11        -0.5050    4.5760    2.4970 c3        1 MOL     -0.092300
     13 C12         0.8260    2.7740    3.6130 c3        1 MOL     -0.092300
     14 C13        -2.1170    4.5240   -4.1890 c         1 MOL      0.634100
     15 O1         -1.2850    4.2380   -5.0390 o         1 MOL     -0.539000
     16 O2         -2.3650    5.8060   -3.8100 oh        1 MOL     -0.613400
     17 H2         -2.3320    1.7510   -4.5420 hc        1 MOL      0.050400
     18 H3         -3.9440    1.6040   -3.8120 hc        1 MOL      0.050400
     19 H4         -3.7010    2.5870   -5.2630 hc        1 MOL      0.050400
     20 H5         -0.6430    2.2340   -2.9590 ha        1 MOL      0.132200
     21 H6          0.3340    1.6540   -0.7710 ha        1 MOL      0.133900
     22 H7         -3.0380    3.4590    1.2120 ha        1 MOL      0.133900
     23 H8         -4.0140    4.0390   -0.9760 ha        1 MOL      0.132200
     24 H9         -1.4900    1.9310    2.4190 hc        1 MOL      0.047400
     25 H10        -0.1280    1.2280    1.5790 hc        1 MOL      0.047400
     26 H11         1.0660    3.4330    1.5940 hc        1 MOL      0.051500
     27 H12         0.1620    5.3410    2.9090 hc        1 MOL      0.035300
     28 H13        -1.3500    4.4560    3.1810 hc        1 MOL      0.035300
     29 H14        -0.9040    4.9530    1.5490 hc        1 MOL      0.035300
     30 H15         1.4860    3.5370    4.0410 hc        1 MOL      0.035300
     31 H16         0.0400    2.5570    4.3440 hc        1 MOL      0.035300
     32 H17         1.4180    1.8640    3.4700 hc        1 MOL      0.035300
     33 H18        -3.0540    5.9150   -3.1200 ho        1 MOL      0.442400
@<TRIPOS>BOND
     1    1    2 1   
     2    2    3 1   
     3    2    4 1   
     4    4    9 ar  
     5    4    5 ar  
     6    5    6 ar  
     7    6    7 ar  
     8    7    8 ar  
     9    8    9 ar  
    10    7   10 1   
    11   10   11 1   
    12   11   12 1   
    13   11   13 1   
    14    2   14 1   
    15   14   15 2   
    16   14   16 1   
    17    1   17 1   
    18    1   18 1   
    19    1   19 1   
    20    5   20 1   
    21    6   21 1   
    22    8   22 1   
    23    9   23 1   
    24   10   24 1   
    25   10   25 1   
    26   11   26 1   
    27   12   27 1   
    28   12   28 1   
    29   12   29 1   
    30   13   30 1   
    31   13   31 1   
    32   13   32 1   
    33   16   33 1   
@<TRIPOS>SUBSTRUCTURE
     1 MOL         1 TEMP              0 ****  ****    0 ROOT
