@<TRIPOS>MOLECULE
(4-chlorophenyl)sulfanylmethylsulfanyl-diethoxy-thioxo-$l^{5}-phosphane
   34    34     1     0     0
SMALL
No Charge or Current Charge


@<TRIPOS>ATOM
      1 C1          2.1820   -0.5070   -0.4910 c3        1 MOL     -0.098000
      2 C2          0.7670   -0.6300    0.0320 c3        1 MOL      0.151900
      3 O1          0.5070   -1.9880    0.3460 os        1 MOL     -0.503400
      4 P1         -0.9520   -2.4350    0.9360 p5        1 MOL      0.878700
      5 S1         -2.4090   -2.0110   -0.3080 s         1 MOL     -0.440000
      6 O2         -0.6710   -4.0430    1.0400 os        1 MOL     -0.503400
      7 C3         -1.6800   -4.9160    1.5200 c3        1 MOL      0.151900
      8 C4         -1.1510   -6.3350    1.5090 c3        1 MOL     -0.098000
      9 S2         -1.0650   -1.6990    2.9280 ss        1 MOL     -0.399000
     10 C5          0.3130   -2.4840    3.8030 c3        1 MOL      0.152700
     11 S3          0.3960   -1.9800    5.5490 ss        1 MOL     -0.117400
     12 C6          1.8220   -2.9070    6.1020 ca        1 MOL     -0.045700
     13 C7          2.2480   -2.8070    7.4270 ca        1 MOL     -0.087100
     14 C8          3.3600   -3.5310    7.8580 ca        1 MOL     -0.128500
     15 C9          4.0460   -4.3540    6.9650 ca        1 MOL      0.034700
     16 C10         3.6190   -4.4540    5.6410 ca        1 MOL     -0.128500
     17 C11         2.5070   -3.7310    5.2090 ca        1 MOL     -0.087100
     18 Cl1         5.4170   -5.2470    7.4970 cl        1 MOL     -0.086600
     19 H1          2.4170    0.5310   -0.7430 hc        1 MOL      0.057700
     20 H2          2.9010   -0.8600    0.2560 hc        1 MOL      0.057700
     21 H3          2.3200   -1.1270   -1.3830 hc        1 MOL      0.057700
     22 H4          0.0490   -0.2990   -0.7250 h1        1 MOL      0.053600
     23 H5          0.6370   -0.0280    0.9360 h1        1 MOL      0.053600
     24 H6         -1.9520   -4.6170    2.5370 h1        1 MOL      0.053600
     25 H7         -2.5600   -4.8300    0.8750 h1        1 MOL      0.053600
     26 H8         -1.9060   -7.0370    1.8750 hc        1 MOL      0.057700
     27 H9         -0.8570   -6.6290    0.4960 hc        1 MOL      0.057700
     28 H10        -0.2580   -6.4190    2.1370 hc        1 MOL      0.057700
     29 H11         1.2540   -2.2710    3.2900 h2        1 MOL      0.098100
     30 H12         0.1620   -3.5670    3.7740 h2        1 MOL      0.098100
     31 H13         1.7270   -2.1710    8.1370 ha        1 MOL      0.146600
     32 H14         3.6810   -3.4430    8.8930 ha        1 MOL      0.151400
     33 H15         4.1440   -5.0920    4.9340 ha        1 MOL      0.151400
     34 H16         2.1900   -3.8220    4.1730 ha        1 MOL      0.146600
@<TRIPOS>BOND
     1    1    2 1   
     2    2    3 1   
     3    3    4 1   
     4    4    5 2   
     5    4    6 1   
     6    6    7 1   
     7    7    8 1   
     8    4    9 1   
     9    9   10 1   
    10   10   11 1   
    11   11   12 1   
    12   12   17 ar  
    13   12   13 ar  
    14   13   14 ar  
    15   14   15 ar  
    16   15   16 ar  
    17   16   17 ar  
    18   15   18 1   
    19    1   19 1   
    20    1   20 1   
    21    1   21 1   
    22    2   22 1   
    23    2   23 1   
    24    7   24 1   
    25    7   25 1   
    26    8   26 1   
    27    8   27 1   
    28    8   28 1   
    29   10   29 1   
    30   10   30 1   
    31   13   31 1   
    32   14   32 1   
    33   16   33 1   
    34   17   34 1   
@<TRIPOS>SUBSTRUCTURE
     1 MOL         1 TEMP              0 ****  ****    0 ROOT
