@<TRIPOS>MOLECULE
S-propyl
   34    33     1     0     0
SMALL
No Charge or Current Charge


@<TRIPOS>ATOM
      1 C1         -2.7020    2.5860   -1.3200 c3        1 MOL     -0.093700
      2 C2         -3.0960    2.5440    0.1480 c3        1 MOL     -0.079400
      3 C3         -1.9930    3.1210    1.0390 c3        1 MOL     -0.101100
      4 C4         -2.3610    3.0920    2.5190 c3        1 MOL      0.103100
      5 N1         -1.3230    3.6340    3.3520 n         1 MOL     -0.473100
      6 C5         -1.2790    5.0640    3.6920 c3        1 MOL      0.098200
      7 C6         -2.0400    5.3100    4.9360 c3        1 MOL     -0.118200
      8 C7         -0.2930    2.8130    3.8840 c         1 MOL      0.687500
      9 O1          0.6220    3.2110    4.6010 o         1 MOL     -0.597100
     10 S1         -0.3730    1.1030    3.4240 ss        1 MOL     -0.280000
     11 C8          1.0710    0.4480    4.2870 c3        1 MOL      0.004200
     12 C9          1.2200   -1.0520    4.0380 c3        1 MOL     -0.072200
     13 C10         2.4340   -1.6180    4.7600 c3        1 MOL     -0.099800
     14 H1         -3.4960    2.1720   -1.9500 hc        1 MOL      0.030800
     15 H2         -2.5210    3.6180   -1.6350 hc        1 MOL      0.030800
     16 H3         -1.7870    2.0110   -1.4970 hc        1 MOL      0.030800
     17 H4         -4.0220    3.1140    0.2880 hc        1 MOL      0.043900
     18 H5         -3.3070    1.5070    0.4300 hc        1 MOL      0.043900
     19 H6         -1.0620    2.5640    0.8770 hc        1 MOL      0.054000
     20 H7         -1.8030    4.1610    0.7470 hc        1 MOL      0.054000
     21 H8         -2.5650    2.0720    2.8580 h1        1 MOL      0.052700
     22 H9         -3.2570    3.6960    2.6930 h1        1 MOL      0.052700
     23 H10        -0.2290    5.3140    3.8030 h1        1 MOL      0.057000
     24 H11        -1.7010    5.5880    2.8420 h1        1 MOL      0.057000
     25 H12        -2.0240    6.3700    5.2130 hc        1 MOL      0.044100
     26 H13        -3.0800    4.9780    4.8420 hc        1 MOL      0.044100
     27 H14        -1.5750    4.7410    5.7500 hc        1 MOL      0.044100
     28 H15         0.9630    0.6460    5.3620 h1        1 MOL      0.077800
     29 H16         1.9650    0.9820    3.9400 h1        1 MOL      0.077800
     30 H17         0.3250   -1.5840    4.3830 hc        1 MOL      0.051800
     31 H18         1.3250   -1.2490    2.9640 hc        1 MOL      0.051800
     32 H19         2.5340   -2.6920    4.5770 hc        1 MOL      0.040900
     33 H20         3.3470   -1.1270    4.4090 hc        1 MOL      0.040900
     34 H21         2.3570   -1.4590    5.8400 hc        1 MOL      0.040900
@<TRIPOS>BOND
     1    1    2 1   
     2    2    3 1   
     3    3    4 1   
     4    4    5 1   
     5    5    6 1   
     6    6    7 1   
     7    5    8 1   
     8    8    9 2   
     9    8   10 1   
    10   10   11 1   
    11   11   12 1   
    12   12   13 1   
    13    1   14 1   
    14    1   15 1   
    15    1   16 1   
    16    2   17 1   
    17    2   18 1   
    18    3   19 1   
    19    3   20 1   
    20    4   21 1   
    21    4   22 1   
    22    6   23 1   
    23    6   24 1   
    24    7   25 1   
    25    7   26 1   
    26    7   27 1   
    27   11   28 1   
    28   11   29 1   
    29   12   30 1   
    30   12   31 1   
    31   13   32 1   
    32   13   33 1   
    33   13   34 1   
@<TRIPOS>SUBSTRUCTURE
     1 MOL         1 TEMP              0 ****  ****    0 ROOT
