@<TRIPOS>MOLECULE
3-methylpyridine
   14    14     1     0     0
SMALL
No Charge or Current Charge


@<TRIPOS>ATOM
      1 C1          2.8850   -0.2670    3.6510 c3        1 MOL     -0.050400
      2 C2          1.6520   -0.6230    2.9000 ca        1 MOL     -0.191600
      3 C3          1.3880   -0.0680    1.6520 ca        1 MOL     -0.096700
      4 C4          0.2270   -0.4200    0.9730 ca        1 MOL     -0.242200
      5 C5         -0.6320   -1.3220    1.5800 ca        1 MOL      0.387400
      6 N1         -0.4090   -1.8820    2.7910 nb        1 MOL     -0.662000
      7 C6          0.7300   -1.5160    3.4210 ca        1 MOL      0.392700
      8 H1          3.6950   -0.9550    3.3890 hc        1 MOL      0.047000
      9 H2          3.2020    0.7560    3.4210 hc        1 MOL      0.047000
     10 H3          2.7130   -0.3160    4.7310 hc        1 MOL      0.047000
     11 H4          2.0810    0.6370    1.2020 ha        1 MOL      0.137100
     12 H5         -0.0000   -0.0000   -0.0000 ha        1 MOL      0.142500
     13 H6         -1.5510   -1.6290    1.0920 h4        1 MOL      0.021000
     14 H7          0.8820   -1.9810    4.3900 h4        1 MOL      0.021300
@<TRIPOS>BOND
     1    1    2 1   
     2    2    7 ar  
     3    2    3 ar  
     4    3    4 ar  
     5    4    5 ar  
     6    5    6 ar  
     7    6    7 ar  
     8    1    8 1   
     9    1    9 1   
    10    1   10 1   
    11    3   11 1   
    12    4   12 1   
    13    5   13 1   
    14    7   14 1   
@<TRIPOS>SUBSTRUCTURE
     1 MOL         1 TEMP              0 ****  ****    0 ROOT
