@<TRIPOS>MOLECULE
2-chloropropane
   11    10     1     0     0
SMALL
No Charge or Current Charge


@<TRIPOS>ATOM
      1 C1          0.8650   -0.5430    0.3970 c3        1 MOL     -0.103900
      2 C2          1.0060   -0.3020    1.8930 c3        1 MOL      0.060800
      3 C3          1.1980    1.1740    2.2080 c3        1 MOL     -0.103900
      4 Cl1         2.3970   -1.2330    2.5190 cl        1 MOL     -0.211800
      5 H1          0.7270   -1.6080    0.1820 hc        1 MOL      0.048400
      6 H2         -0.0070   -0.0100    0.0020 hc        1 MOL      0.048400
      7 H3          1.7470   -0.1960   -0.1520 hc        1 MOL      0.048400
      8 H4          0.1160   -0.6750    2.4100 h1        1 MOL      0.068600
      9 H5          1.2980    1.3350    3.2870 hc        1 MOL      0.048400
     10 H6          0.3360    1.7560    1.8650 hc        1 MOL      0.048400
     11 H7          2.0910    1.5780    1.7200 hc        1 MOL      0.048400
@<TRIPOS>BOND
     1    1    2 1   
     2    2    3 1   
     3    2    4 1   
     4    1    5 1   
     5    1    6 1   
     6    1    7 1   
     7    2    8 1   
     8    3    9 1   
     9    3   10 1   
    10    3   11 1   
@<TRIPOS>SUBSTRUCTURE
     1 MOL         1 TEMP              0 ****  ****    0 ROOT
