@<TRIPOS>MOLECULE
isopentyl
   23    22     1     0     0
SMALL
No Charge or Current Charge


@<TRIPOS>ATOM
      1 C1         -0.2770   -3.2840   -0.8540 c3        1 MOL     -0.091200
      2 C2         -0.6860   -1.8170   -0.9950 c3        1 MOL     -0.065400
      3 C3          0.0170   -0.9790    0.0740 c3        1 MOL     -0.091200
      4 C4         -0.3810   -1.3240   -2.4190 c3        1 MOL     -0.113300
      5 C5         -1.1140   -2.0990   -3.5070 c3        1 MOL      0.136700
      6 O1         -0.7560   -1.5580   -4.7720 os        1 MOL     -0.446000
      7 C6         -1.3360   -2.1520   -5.8590 c         1 MOL      0.631900
      8 O2         -2.1210   -3.0910   -5.8330 o         1 MOL     -0.538200
      9 C7         -0.8700   -1.4820   -7.1150 c3        1 MOL     -0.153100
     10 H1         -0.7700   -3.9010   -1.6120 hc        1 MOL      0.034300
     11 H2         -0.5450   -3.6790    0.1320 hc        1 MOL      0.034300
     12 H3          0.8050   -3.4010   -0.9830 hc        1 MOL      0.034300
     13 H4         -1.7680   -1.7520   -0.8250 hc        1 MOL      0.053800
     14 H5         -0.2590    0.0780   -0.0040 hc        1 MOL      0.034300
     15 H6          1.1050   -1.0520   -0.0290 hc        1 MOL      0.034300
     16 H7         -0.2360   -1.3240    1.0810 hc        1 MOL      0.034300
     17 H8          0.6990   -1.3960   -2.6080 hc        1 MOL      0.055900
     18 H9         -0.6210   -0.2570   -2.5130 hc        1 MOL      0.055900
     19 H10        -0.8320   -3.1570   -3.4900 h1        1 MOL      0.066200
     20 H11        -2.1980   -2.0150   -3.3970 h1        1 MOL      0.066200
     21 H12         0.0320   -1.9750   -7.4860 hc        1 MOL      0.075300
     22 H13        -0.6780   -0.4230   -6.9220 hc        1 MOL      0.075300
     23 H14        -1.6490   -1.5600   -7.8790 hc        1 MOL      0.075300
@<TRIPOS>BOND
     1    1    2 1   
     2    2    3 1   
     3    2    4 1   
     4    4    5 1   
     5    5    6 1   
     6    6    7 1   
     7    7    8 2   
     8    7    9 1   
     9    1   10 1   
    10    1   11 1   
    11    1   12 1   
    12    2   13 1   
    13    3   14 1   
    14    3   15 1   
    15    3   16 1   
    16    4   17 1   
    17    4   18 1   
    18    5   19 1   
    19    5   20 1   
    20    9   21 1   
    21    9   22 1   
    22    9   23 1   
@<TRIPOS>SUBSTRUCTURE
     1 MOL         1 TEMP              0 ****  ****    0 ROOT
