@<TRIPOS>MOLECULE
pentyl
   23    22     1     0     0
SMALL
No Charge or Current Charge


@<TRIPOS>ATOM
      1 C1          0.7900   -0.3890    0.6490 c3        1 MOL     -0.094000
      2 C2          1.6170   -1.4420   -0.0700 c3        1 MOL     -0.082200
      3 C3          2.2940   -0.8690   -1.3150 c3        1 MOL     -0.072700
      4 C4          3.1240   -1.9290   -2.0350 c3        1 MOL     -0.109100
      5 C5          3.8010   -1.3660   -3.2760 c3        1 MOL      0.139100
      6 O1          4.5540   -2.3990   -3.8970 os        1 MOL     -0.461400
      7 C6          5.2260   -2.0450   -5.0340 c         1 MOL      0.637000
      8 O2          5.2330   -0.9360   -5.5510 o         1 MOL     -0.521000
      9 C7          5.9720   -3.2270   -5.5750 c3        1 MOL     -0.158600
     10 H1          0.3090   -0.8080    1.5390 hc        1 MOL      0.034600
     11 H2          1.4140    0.4550    0.9610 hc        1 MOL      0.034600
     12 H3          0.0060   -0.0060   -0.0110 hc        1 MOL      0.034600
     13 H4          0.9680   -2.2800   -0.3510 hc        1 MOL      0.038500
     14 H5          2.3750   -1.8350    0.6180 hc        1 MOL      0.038500
     15 H6          1.5320   -0.4720   -1.9980 hc        1 MOL      0.043100
     16 H7          2.9390   -0.0290   -1.0280 hc        1 MOL      0.043100
     17 H8          2.4900   -2.7780   -2.3210 hc        1 MOL      0.047100
     18 H9          3.8850   -2.3390   -1.3590 hc        1 MOL      0.047100
     19 H10         4.4810   -0.5490   -3.0130 h1        1 MOL      0.068000
     20 H11         3.0600   -0.9970   -3.9920 h1        1 MOL      0.068000
     21 H12         5.3370   -3.7780   -6.2740 hc        1 MOL      0.075100
     22 H13         6.2910   -3.8730   -4.7530 hc        1 MOL      0.075100
     23 H14         6.8610   -2.8810   -6.1110 hc        1 MOL      0.075100
@<TRIPOS>BOND
     1    1    2 1   
     2    2    3 1   
     3    3    4 1   
     4    4    5 1   
     5    5    6 1   
     6    6    7 1   
     7    7    8 2   
     8    7    9 1   
     9    1   10 1   
    10    1   11 1   
    11    1   12 1   
    12    2   13 1   
    13    2   14 1   
    14    3   15 1   
    15    3   16 1   
    16    4   17 1   
    17    4   18 1   
    18    5   19 1   
    19    5   20 1   
    20    9   21 1   
    21    9   22 1   
    22    9   23 1   
@<TRIPOS>SUBSTRUCTURE
     1 MOL         1 TEMP              0 ****  ****    0 ROOT
