@<TRIPOS>MOLECULE
2-aminoanthracene-9,10-dione
   26    28     1     0     0
SMALL
No Charge or Current Charge


@<TRIPOS>ATOM
      1 C1          1.2900   -1.6870   -0.3520 ca        1 MOL     -0.116500
      2 C2          0.9560   -0.4630    0.2260 ca        1 MOL     -0.119900
      3 C3          1.8480    0.1680    1.0930 ca        1 MOL     -0.087200
      4 C4          3.0810   -0.4280    1.3840 ca        1 MOL     -0.129900
      5 C5          3.4160   -1.6540    0.8060 ca        1 MOL     -0.123400
      6 C6          2.5180   -2.2840   -0.0640 ca        1 MOL     -0.089700
      7 C7          4.7130   -2.2940    1.1040 c         1 MOL      0.592200
      8 O1          5.0070   -3.3690    0.5970 o         1 MOL     -0.536800
      9 C8          5.6520   -1.6180    2.0240 ca        1 MOL     -0.186900
     10 C9          6.8850   -2.2140    2.3150 ca        1 MOL     -0.039500
     11 C10         7.7770   -1.5830    3.1820 ca        1 MOL     -0.198800
     12 C11         7.4420   -0.3590    3.7590 ca        1 MOL      0.182800
     13 C12         6.2150    0.2380    3.4720 ca        1 MOL     -0.162600
     14 C13         5.3170   -0.3920    2.6020 ca        1 MOL     -0.079400
     15 C14         4.0190    0.2480    2.3040 c         1 MOL      0.584100
     16 O2          3.7250    1.3230    2.8100 o         1 MOL     -0.527400
     17 N1          8.3470    0.2760    4.6360 nh        1 MOL     -0.840700
     18 H1          0.5940   -2.1770   -1.0250 ha        1 MOL      0.141000
     19 H2         -0.0010   -0.0010    0.0010 ha        1 MOL      0.140700
     20 H3          1.5650    1.1220    1.5300 ha        1 MOL      0.158900
     21 H4          2.7550   -3.2380   -0.5270 ha        1 MOL      0.159700
     22 H5          7.1690   -3.1680    1.8780 ha        1 MOL      0.158400
     23 H6          8.7310   -2.0550    3.4020 ha        1 MOL      0.139800
     24 H7          5.9680    1.1940    3.9300 ha        1 MOL      0.158200
     25 H8          8.1160    1.1760    5.0070 hn        1 MOL      0.411500
     26 H9          9.2420   -0.1390    4.7980 hn        1 MOL      0.411500
@<TRIPOS>BOND
     1    1    6 ar  
     2    1    2 ar  
     3    2    3 ar  
     4    3    4 ar  
     5    4   15 1   
     6    4    5 ar  
     7    5    6 ar  
     8    5    7 1   
     9    7    8 2   
    10    7    9 1   
    11    9   14 ar  
    12    9   10 ar  
    13   10   11 ar  
    14   11   12 ar  
    15   12   13 ar  
    16   13   14 ar  
    17   14   15 1   
    18   15   16 2   
    19   12   17 1   
    20    1   18 1   
    21    2   19 1   
    22    3   20 1   
    23    6   21 1   
    24   10   22 1   
    25   11   23 1   
    26   13   24 1   
    27   17   25 1   
    28   17   26 1   
@<TRIPOS>SUBSTRUCTURE
     1 MOL         1 TEMP              0 ****  ****    0 ROOT
