@<TRIPOS>MOLECULE
cyclopentane
   15    15     1     0     0
SMALL
No Charge or Current Charge


@<TRIPOS>ATOM
      1 C1         -0.2460    0.8540   -0.9310 c3        1 MOL     -0.080700
      2 C2          1.1260    0.4810   -0.3700 c3        1 MOL     -0.080700
      3 C3          0.8450   -0.3300    0.8860 c3        1 MOL     -0.080700
      4 C4         -0.4580   -1.0390    0.5620 c3        1 MOL     -0.080700
      5 C5         -1.2680    0.0350   -0.1460 c3        1 MOL     -0.080700
      6 H1         -0.2940    0.6220   -2.0010 hc        1 MOL      0.040300
      7 H2         -0.4440    1.9250   -0.8210 hc        1 MOL      0.040300
      8 H3          1.6660   -0.1350   -1.1000 hc        1 MOL      0.040300
      9 H4          1.7400    1.3620   -0.1610 hc        1 MOL      0.040300
     10 H5          1.6550   -1.0270    1.1190 hc        1 MOL      0.040300
     11 H6          0.7090    0.3390    1.7440 hc        1 MOL      0.040300
     12 H7         -0.2740   -1.8830   -0.1130 hc        1 MOL      0.040300
     13 H8         -0.9620   -1.4190    1.4560 hc        1 MOL      0.040300
     14 H9         -2.0430   -0.3900   -0.7920 hc        1 MOL      0.040300
     15 H10        -1.7640    0.6760    0.5920 hc        1 MOL      0.040300
@<TRIPOS>BOND
     1    1    5 1   
     2    1    2 1   
     3    2    3 1   
     4    3    4 1   
     5    4    5 1   
     6    1    6 1   
     7    1    7 1   
     8    2    8 1   
     9    2    9 1   
    10    3   10 1   
    11    3   11 1   
    12    4   12 1   
    13    4   13 1   
    14    5   14 1   
    15    5   15 1   
@<TRIPOS>SUBSTRUCTURE
     1 MOL         1 TEMP              0 ****  ****    0 ROOT
