@<TRIPOS>MOLECULE
ethyl
   20    19     1     0     0
SMALL
No Charge or Current Charge


@<TRIPOS>ATOM
      1 C1         -0.3790   -0.6980    0.7530 c3        1 MOL     -0.100000
      2 C2          0.4050   -0.5790    2.0500 c3        1 MOL     -0.075600
      3 C3          1.8850   -0.8880    1.8410 c3        1 MOL     -0.126300
      4 C4          2.6750   -0.7720    3.1240 c         1 MOL      0.632600
      5 O1          2.2100   -0.4690    4.2140 o         1 MOL     -0.543600
      6 O2          3.9850   -1.0620    2.8650 os        1 MOL     -0.445400
      7 C5          4.8650   -0.9950    3.9920 c3        1 MOL      0.138200
      8 C6          6.2610   -1.3410    3.5320 c3        1 MOL     -0.100300
      9 H1         -1.4350   -0.4720    0.9260 hc        1 MOL      0.039100
     10 H2         -0.0010    0.0010    0.0010 hc        1 MOL      0.039100
     11 H3         -0.3100   -1.7120    0.3460 hc        1 MOL      0.039100
     12 H4         -0.0190   -1.2650    2.7930 hc        1 MOL      0.053700
     13 H5          0.2870    0.4350    2.4520 hc        1 MOL      0.053700
     14 H6          2.3100   -0.1870    1.1130 hc        1 MOL      0.076000
     15 H7          1.9990   -1.9090    1.4600 hc        1 MOL      0.076000
     16 H8          4.8250    0.0170    4.3960 h1        1 MOL      0.050800
     17 H9          4.5130   -1.7040    4.7420 h1        1 MOL      0.050800
     18 H10         6.9620   -1.2990    4.3720 hc        1 MOL      0.047400
     19 H11         6.2910   -2.3450    3.0960 hc        1 MOL      0.047400
     20 H12         6.5990   -0.6460    2.7560 hc        1 MOL      0.047400
@<TRIPOS>BOND
     1    1    2 1   
     2    2    3 1   
     3    3    4 1   
     4    4    5 2   
     5    4    6 1   
     6    6    7 1   
     7    7    8 1   
     8    1    9 1   
     9    1   10 1   
    10    1   11 1   
    11    2   12 1   
    12    2   13 1   
    13    3   14 1   
    14    3   15 1   
    15    7   16 1   
    16    7   17 1   
    17    8   18 1   
    18    8   19 1   
    19    8   20 1   
@<TRIPOS>SUBSTRUCTURE
     1 MOL         1 TEMP              0 ****  ****    0 ROOT
