@<TRIPOS>MOLECULE
1,2-diethoxyethane
   22    21     1     0     0
SMALL
No Charge or Current Charge


@<TRIPOS>ATOM
      1 C1          0.2900    0.5590    3.9220 c3        1 MOL     -0.096800
      2 C2          0.3040    0.8200    2.4300 c3        1 MOL      0.131400
      3 O1         -0.8530    0.2360    1.8470 os        1 MOL     -0.427200
      4 C3         -0.8940    0.4510    0.4420 c3        1 MOL      0.127400
      5 C4         -2.1460   -0.1940   -0.1210 c3        1 MOL      0.127400
      6 O2         -2.1150   -1.5890    0.1550 os        1 MOL     -0.427200
      7 C5         -3.2680   -2.2460   -0.3510 c3        1 MOL      0.131400
      8 C6         -3.1760   -3.7210   -0.0270 c3        1 MOL     -0.096800
      9 H1          1.1690    0.9960    4.4030 hc        1 MOL      0.045200
     10 H2         -0.6100    0.9810    4.3790 hc        1 MOL      0.045200
     11 H3          0.2750   -0.5170    4.1240 hc        1 MOL      0.045200
     12 H4          1.1930    0.3770    1.9720 h1        1 MOL      0.025100
     13 H5          0.2960    1.8960    2.2290 h1        1 MOL      0.025100
     14 H6         -0.8900    1.5300    0.2610 h1        1 MOL      0.039600
     15 H7          0.0000    0.0000    0.0000 h1        1 MOL      0.039600
     16 H8         -2.2040   -0.0620   -1.2060 h1        1 MOL      0.039600
     17 H9         -3.0380    0.2290    0.3500 h1        1 MOL      0.039600
     18 H10        -4.1550   -1.8050    0.1130 h1        1 MOL      0.025100
     19 H11        -3.3140   -2.0920   -1.4330 h1        1 MOL      0.025100
     20 H12        -4.0510   -4.2580   -0.4040 hc        1 MOL      0.045200
     21 H13        -2.2750   -4.1590   -0.4700 hc        1 MOL      0.045200
     22 H14        -3.1060   -3.8750    1.0550 hc        1 MOL      0.045200
@<TRIPOS>BOND
     1    1    2 1   
     2    2    3 1   
     3    3    4 1   
     4    4    5 1   
     5    5    6 1   
     6    6    7 1   
     7    7    8 1   
     8    1    9 1   
     9    1   10 1   
    10    1   11 1   
    11    2   12 1   
    12    2   13 1   
    13    4   14 1   
    14    4   15 1   
    15    5   16 1   
    16    5   17 1   
    17    7   18 1   
    18    7   19 1   
    19    8   20 1   
    20    8   21 1   
    21    8   22 1   
@<TRIPOS>SUBSTRUCTURE
     1 MOL         1 TEMP              0 ****  ****    0 ROOT
