@<TRIPOS>MOLECULE
2-ethylpyridine
   17    17     1     0     0
SMALL
No Charge or Current Charge


@<TRIPOS>ATOM
      1 C1          0.3910   -1.2950    5.8830 c3        1 MOL     -0.089200
      2 C2          0.9810   -2.1300    4.7570 c3        1 MOL     -0.133900
      3 C3          0.7300   -1.5160    3.4210 ca        1 MOL      0.411400
      4 C4          1.6520   -0.6230    2.9000 ca        1 MOL     -0.243700
      5 C5          1.3880   -0.0680    1.6520 ca        1 MOL     -0.091100
      6 C6          0.2270   -0.4200    0.9730 ca        1 MOL     -0.252800
      7 C7         -0.6320   -1.3220    1.5800 ca        1 MOL      0.398400
      8 N1         -0.4090   -1.8820    2.7910 nb        1 MOL     -0.667100
      9 H1          0.5810   -1.7540    6.8600 hc        1 MOL      0.038600
     10 H2         -0.6920   -1.2010    5.7570 hc        1 MOL      0.038600
     11 H3          0.8200   -0.2870    5.8970 hc        1 MOL      0.038600
     12 H4          0.5570   -3.1410    4.7850 hc        1 MOL      0.055300
     13 H5          2.0600   -2.2500    4.9120 hc        1 MOL      0.055300
     14 H6          2.5540   -0.3570    3.4400 ha        1 MOL      0.142600
     15 H7          2.0860    0.6360    1.2100 ha        1 MOL      0.136700
     16 H8          0.0000   -0.0000   -0.0000 ha        1 MOL      0.141600
     17 H9         -1.5510   -1.6290    1.0920 h4        1 MOL      0.020900
@<TRIPOS>BOND
     1    1    2 1   
     2    2    3 1   
     3    3    8 ar  
     4    3    4 ar  
     5    4    5 ar  
     6    5    6 ar  
     7    6    7 ar  
     8    7    8 ar  
     9    1    9 1   
    10    1   10 1   
    11    1   11 1   
    12    2   12 1   
    13    2   13 1   
    14    4   14 1   
    15    5   15 1   
    16    6   16 1   
    17    7   17 1   
@<TRIPOS>SUBSTRUCTURE
     1 MOL         1 TEMP              0 ****  ****    0 ROOT
