@<TRIPOS>MOLECULE
isopropyl
   14    13     1     0     0
SMALL
No Charge or Current Charge


@<TRIPOS>ATOM
      1 C1          1.0770    0.0500    0.1960 c3        1 MOL     -0.106100
      2 C2          1.3530    0.9190    1.4130 c3        1 MOL      0.135800
      3 C3          2.8430    1.0380    1.6980 c3        1 MOL     -0.106100
      4 O1          0.8120    2.2180    1.1940 os        1 MOL     -0.443900
      5 C4          0.3770    2.8690    2.3070 c         1 MOL      0.631600
      6 O2          0.4010    2.4640    3.4590 o         1 MOL     -0.541100
      7 H1          0.0030   -0.0290    0.0000 hc        1 MOL      0.047300
      8 H2          1.5640    0.4690   -0.6910 hc        1 MOL      0.047300
      9 H3          1.4830   -0.9590    0.3310 hc        1 MOL      0.047300
     10 H4          0.8470    0.4960    2.2870 h1        1 MOL      0.067600
     11 H5          3.0310    1.6650    2.5750 hc        1 MOL      0.047300
     12 H6          3.3610    1.4750    0.8370 hc        1 MOL      0.047300
     13 H7          3.2910    0.0530    1.8680 hc        1 MOL      0.047300
     14 H8         -0.0150    3.8540    2.0100 h5        1 MOL      0.078400
@<TRIPOS>BOND
     1    1    2 1   
     2    2    3 1   
     3    2    4 1   
     4    4    5 1   
     5    5    6 2   
     6    1    7 1   
     7    1    8 1   
     8    1    9 1   
     9    2   10 1   
    10    3   11 1   
    11    3   12 1   
    12    3   13 1   
    13    5   14 1   
@<TRIPOS>SUBSTRUCTURE
     1 MOL         1 TEMP              0 ****  ****    0 ROOT
