@<TRIPOS>MOLECULE
imidazole
    9     9     1     0     0
SMALL
No Charge or Current Charge


@<TRIPOS>ATOM
      1 C1          0.6550   -0.7780   -0.3640 cc        1 MOL     -0.262100
      2 C2          1.9500   -0.7740   -0.8260 cd        1 MOL      0.290700
      3 N1          2.3540   -2.0370   -1.1810 nd        1 MOL     -0.665100
      4 C3          1.3130   -2.8020   -0.9370 cc        1 MOL      0.380800
      5 N2          0.2600   -2.0840   -0.4420 na        1 MOL     -0.320800
      6 H1          0.0000   -0.0000    0.0010 h4        1 MOL      0.176900
      7 H2          2.6120    0.0740   -0.9220 h4        1 MOL      0.041400
      8 H3          1.2580   -3.8690   -1.0950 h5        1 MOL      0.059700
      9 H4         -0.6440   -2.4530   -0.1780 hn        1 MOL      0.298400
@<TRIPOS>BOND
     1    1    5 1   
     2    1    2 2   
     3    2    3 1   
     4    3    4 2   
     5    4    5 1   
     6    1    6 1   
     7    2    7 1   
     8    4    8 1   
     9    5    9 1   
@<TRIPOS>SUBSTRUCTURE
     1 MOL         1 TEMP              0 ****  ****    0 ROOT
