@<TRIPOS>MOLECULE
tetrahydrofuran
   13    13     1     0     0
SMALL
No Charge or Current Charge


@<TRIPOS>ATOM
      1 C1         -0.5360   -1.0230   -0.5050 c3        1 MOL     -0.111700
      2 C2         -0.5410    0.3720   -1.0760 c3        1 MOL     -0.111700
      3 C3          0.6040    1.0190   -0.3270 c3        1 MOL      0.124000
      4 O1          0.6570    0.3970    0.9640 os        1 MOL     -0.429500
      5 C4         -0.1830   -0.7650    0.9440 c3        1 MOL      0.124000
      6 H1          0.2530   -1.6160   -0.9830 hc        1 MOL      0.054700
      7 H2         -1.4850   -1.5520   -0.6270 hc        1 MOL      0.054700
      8 H3         -0.4150    0.4060   -2.1610 hc        1 MOL      0.054700
      9 H4         -1.4840    0.8730   -0.8230 hc        1 MOL      0.054700
     10 H5          1.5600    0.8330   -0.8280 h1        1 MOL      0.046500
     11 H6          0.4750    2.0990   -0.2110 h1        1 MOL      0.046500
     12 H7          0.3390   -1.6080    1.4050 h1        1 MOL      0.046500
     13 H8         -1.0770   -0.5410    1.5360 h1        1 MOL      0.046500
@<TRIPOS>BOND
     1    1    5 1   
     2    1    2 1   
     3    2    3 1   
     4    3    4 1   
     5    4    5 1   
     6    1    6 1   
     7    1    7 1   
     8    2    8 1   
     9    2    9 1   
    10    3   10 1   
    11    3   11 1   
    12    5   12 1   
    13    5   13 1   
@<TRIPOS>SUBSTRUCTURE
     1 MOL         1 TEMP              0 ****  ****    0 ROOT
