@<TRIPOS>MOLECULE
(E)-oct-2-enal
   23    22     1     0     0
SMALL
No Charge or Current Charge


@<TRIPOS>ATOM
      1 C1         -2.2860   -0.6810   -2.6470 c3        1 MOL     -0.092100
      2 C2         -0.8530   -0.2730   -2.3430 c3        1 MOL     -0.079200
      3 C3         -0.7160    0.2750   -0.9220 c3        1 MOL     -0.078400
      4 C4          0.7300    0.6840   -0.6240 c3        1 MOL     -0.077500
      5 C5          0.9270    1.2410    0.7900 c3        1 MOL     -0.063800
      6 C6          2.3460    1.6410    1.0800 c2        1 MOL     -0.087600
      7 C7          2.7040    2.8880    1.4110 ce        1 MOL     -0.274000
      8 C8          4.1230    3.1780    1.6890 c         1 MOL      0.558300
      9 O1          4.5070    4.3010    1.9960 o         1 MOL     -0.526200
     10 H1         -2.3760   -1.0720   -3.6660 hc        1 MOL      0.034000
     11 H2         -2.9540    0.1810   -2.5540 hc        1 MOL      0.034000
     12 H3         -2.6300   -1.4530   -1.9510 hc        1 MOL      0.034000
     13 H4         -0.5350    0.4860   -3.0680 hc        1 MOL      0.038800
     14 H5         -0.1970   -1.1410   -2.4730 hc        1 MOL      0.038800
     15 H6         -1.3760    1.1420   -0.7980 hc        1 MOL      0.040500
     16 H7         -1.0460   -0.4900   -0.2100 hc        1 MOL      0.040500
     17 H8          1.3970   -0.1740   -0.7810 hc        1 MOL      0.043100
     18 H9          1.0360    1.4560   -1.3410 hc        1 MOL      0.043100
     19 H10         0.6130    0.4960    1.5310 hc        1 MOL      0.056100
     20 H11         0.2600    2.1030    0.9170 hc        1 MOL      0.056100
     21 H12         3.0950    0.8560    1.0290 ha        1 MOL      0.121200
     22 H13         1.9920    3.7010    1.4830 ha        1 MOL      0.148100
     23 H14         4.8220    2.3290    1.6040 h4        1 MOL     -0.007900
@<TRIPOS>BOND
     1    1    2 1   
     2    2    3 1   
     3    3    4 1   
     4    4    5 1   
     5    5    6 1   
     6    6    7 2   
     7    7    8 1   
     8    8    9 2   
     9    1   10 1   
    10    1   11 1   
    11    1   12 1   
    12    2   13 1   
    13    2   14 1   
    14    3   15 1   
    15    3   16 1   
    16    4   17 1   
    17    4   18 1   
    18    5   19 1   
    19    5   20 1   
    20    6   21 1   
    21    7   22 1   
    22    8   23 1   
@<TRIPOS>SUBSTRUCTURE
     1 MOL         1 TEMP              0 ****  ****    0 ROOT
