@<TRIPOS>MOLECULE
2,4-dimethylpyridine
   17    17     1     0     0
SMALL
No Charge or Current Charge


@<TRIPOS>ATOM
      1 C1          2.3460    0.8980    1.0440 c3        1 MOL     -0.062000
      2 C2          1.3880   -0.0680    1.6520 ca        1 MOL     -0.034900
      3 C3          0.2270   -0.4200    0.9730 ca        1 MOL     -0.256000
      4 C4         -0.6320   -1.3220    1.5800 ca        1 MOL      0.403000
      5 N1         -0.4090   -1.8820    2.7910 nb        1 MOL     -0.673400
      6 C5          0.7300   -1.5160    3.4210 ca        1 MOL      0.415300
      7 C6          1.6520   -0.6230    2.9000 ca        1 MOL     -0.251600
      8 C7          0.9810   -2.1310    4.7570 c3        1 MOL     -0.149900
      9 H1          3.0850    0.3630    0.4400 hc        1 MOL      0.049100
     10 H2          1.8230    1.6190    0.4060 hc        1 MOL      0.049100
     11 H3          2.8690    1.4700    1.8180 hc        1 MOL      0.049100
     12 H4         -0.0080   -0.0050   -0.0010 ha        1 MOL      0.142400
     13 H5         -1.5510   -1.6290    1.0920 h4        1 MOL      0.019800
     14 H6          2.5520   -0.3620    3.4470 ha        1 MOL      0.141200
     15 H7          1.5440   -3.0650    4.6470 hc        1 MOL      0.052900
     16 H8          1.5520   -1.4530    5.4050 hc        1 MOL      0.052900
     17 H9          0.0390   -2.3500    5.2770 hc        1 MOL      0.052900
@<TRIPOS>BOND
     1    1    2 1   
     2    2    7 ar  
     3    2    3 ar  
     4    3    4 ar  
     5    4    5 ar  
     6    5    6 ar  
     7    6    7 ar  
     8    6    8 1   
     9    1    9 1   
    10    1   10 1   
    11    1   11 1   
    12    3   12 1   
    13    4   13 1   
    14    7   14 1   
    15    8   15 1   
    16    8   16 1   
    17    8   17 1   
@<TRIPOS>SUBSTRUCTURE
     1 MOL         1 TEMP              0 ****  ****    0 ROOT
