@<TRIPOS>MOLECULE
1,2,4-trichlorobenzene
   12    12     1     0     0
SMALL
No Charge or Current Charge


@<TRIPOS>ATOM
      1 C1          1.8850   -1.0360   -0.1120 ca        1 MOL     -0.117800
      2 C2          2.9210   -1.6310    0.6080 ca        1 MOL     -0.109400
      3 C3          2.8780   -1.6520    2.0020 ca        1 MOL      0.015800
      4 C4          1.8000   -1.0790    2.6760 ca        1 MOL      0.025400
      5 C5          0.7640   -0.4840    1.9550 ca        1 MOL     -0.114200
      6 C6          0.8070   -0.4630    0.5610 ca        1 MOL      0.022800
      7 Cl1        -0.4720    0.2690   -0.3290 cl        1 MOL     -0.077400
      8 Cl2         1.6890   -1.0750    4.4010 cl        1 MOL     -0.062400
      9 Cl3         4.1900   -2.4060    2.8380 cl        1 MOL     -0.060900
     10 H1          1.9310   -1.0280   -1.1980 ha        1 MOL      0.155600
     11 H2          3.7530   -2.0740    0.0670 ha        1 MOL      0.156600
     12 H3         -0.0780   -0.0340    2.4770 ha        1 MOL      0.165900
@<TRIPOS>BOND
     1    1    6 ar  
     2    1    2 ar  
     3    2    3 ar  
     4    3    4 ar  
     5    4    5 ar  
     6    5    6 ar  
     7    6    7 1   
     8    4    8 1   
     9    3    9 1   
    10    1   10 1   
    11    2   11 1   
    12    5   12 1   
@<TRIPOS>SUBSTRUCTURE
     1 MOL         1 TEMP              0 ****  ****    0 ROOT
