@<TRIPOS>MOLECULE
N,N-dimethylbenzamide
   22    22     1     0     0
SMALL
No Charge or Current Charge


@<TRIPOS>ATOM
      1 C1          0.9450   -0.0480   -0.2110 c3        1 MOL      0.083000
      2 N1          1.3870    0.6310   -1.4210 n         1 MOL     -0.483000
      3 C2          0.7920    0.1550   -2.6670 c3        1 MOL      0.083000
      4 C3          2.3230    1.6660   -1.3230 c         1 MOL      0.671900
      5 O1          2.8290    2.0740   -0.2780 o         1 MOL     -0.591200
      6 C4          2.7670    2.3260   -2.5620 ca        1 MOL     -0.127800
      7 C5          3.8750    1.8370   -3.2530 ca        1 MOL     -0.100200
      8 C6          4.2960    2.4630   -4.4270 ca        1 MOL     -0.132100
      9 C7          3.6090    3.5780   -4.9080 ca        1 MOL     -0.117800
     10 C8          2.5010    4.0660   -4.2160 ca        1 MOL     -0.132100
     11 C9          2.0800    3.4400   -3.0430 ca        1 MOL     -0.100200
     12 H1          1.5930   -0.9040   -0.0030 h1        1 MOL      0.042600
     13 H2         -0.0810   -0.4050   -0.3320 h1        1 MOL      0.042600
     14 H3          0.9810    0.6360    0.6410 h1        1 MOL      0.042600
     15 H4         -0.1130    0.7210   -2.8640 h1        1 MOL      0.042600
     16 H5          0.5550   -0.8990   -2.5670 h1        1 MOL      0.042600
     17 H6          1.5020    0.2990   -3.4760 h1        1 MOL      0.042600
     18 H7          4.4180    0.9700   -2.8870 ha        1 MOL      0.142000
     19 H8          5.1590    2.0830   -4.9660 ha        1 MOL      0.136500
     20 H9          3.9370    4.0650   -5.8220 ha        1 MOL      0.134300
     21 H10         1.9670    4.9340   -4.5910 ha        1 MOL      0.136500
     22 H11         1.2140    3.8290   -2.5130 ha        1 MOL      0.142000
@<TRIPOS>BOND
     1    1    2 1   
     2    2    3 1   
     3    2    4 1   
     4    4    5 2   
     5    4    6 1   
     6    6   11 ar  
     7    6    7 ar  
     8    7    8 ar  
     9    8    9 ar  
    10    9   10 ar  
    11   10   11 ar  
    12    1   12 1   
    13    1   13 1   
    14    1   14 1   
    15    3   15 1   
    16    3   16 1   
    17    3   17 1   
    18    7   18 1   
    19    8   19 1   
    20    9   20 1   
    21   10   21 1   
    22   11   22 1   
@<TRIPOS>SUBSTRUCTURE
     1 MOL         1 TEMP              0 ****  ****    0 ROOT
