@<TRIPOS>MOLECULE
3,5,5-trimethylcyclohex-2-en-1-one
   24    24     1     0     0
SMALL
No Charge or Current Charge


@<TRIPOS>ATOM
      1 C1          0.1360   -2.7140    1.0780 c3        1 MOL     -0.074100
      2 C2          0.9790   -1.4740    1.1630 c2        1 MOL     -0.036700
      3 C3          1.7070   -1.2020    2.2560 ce        1 MOL     -0.262400
      4 C4          2.4900    0.0530    2.3480 c         1 MOL      0.568000
      5 O1          3.1580    0.2810    3.3560 o         1 MOL     -0.539700
      6 C5          2.3870    1.0610    1.2230 c3        1 MOL     -0.175100
      7 C6          2.1420    0.3970   -0.1420 c3        1 MOL     -0.044800
      8 C7          0.9390   -0.5680   -0.0430 c3        1 MOL     -0.055300
      9 C8          3.4060   -0.3590   -0.6040 c3        1 MOL     -0.090300
     10 C9          1.8310    1.4850   -1.1860 c3        1 MOL     -0.090300
     11 H1          0.7130   -3.5360    0.6470 hc        1 MOL      0.051600
     12 H2         -0.7420   -2.5340    0.4510 hc        1 MOL      0.051600
     13 H3         -0.2070   -3.0080    2.0730 hc        1 MOL      0.051600
     14 H4          1.7310   -1.8660    3.1130 ha        1 MOL      0.148100
     15 H5          1.5690    1.7460    1.4770 hc        1 MOL      0.072800
     16 H6          3.3160    1.6440    1.1980 hc        1 MOL      0.072800
     17 H7          0.0000    0.0000   -0.0000 hc        1 MOL      0.058800
     18 H8          0.8940   -1.1750   -0.9560 hc        1 MOL      0.058800
     19 H9          3.2110   -0.8180   -1.5660 hc        1 MOL      0.039100
     20 H10         3.6470   -1.1210    0.1270 hc        1 MOL      0.039100
     21 H11         4.2260    0.3440   -0.6890 hc        1 MOL      0.039100
     22 H12         1.6580    1.0170   -2.1490 hc        1 MOL      0.039100
     23 H13         2.6740    2.1640   -1.2560 hc        1 MOL      0.039100
     24 H14         0.9450    2.0310   -0.8800 hc        1 MOL      0.039100
@<TRIPOS>BOND
     1    1    2 1   
     2    2    8 1   
     3    2    3 2   
     4    3    4 1   
     5    4    5 2   
     6    4    6 1   
     7    6    7 1   
     8    7    8 1   
     9    7    9 1   
    10    7   10 1   
    11    1   11 1   
    12    1   12 1   
    13    1   13 1   
    14    3   14 1   
    15    6   15 1   
    16    6   16 1   
    17    8   17 1   
    18    8   18 1   
    19    9   19 1   
    20    9   20 1   
    21    9   21 1   
    22   10   22 1   
    23   10   23 1   
    24   10   24 1   
@<TRIPOS>SUBSTRUCTURE
     1 MOL         1 TEMP              0 ****  ****    0 ROOT
