@<TRIPOS>MOLECULE
1-chlorodibenzo-p-dioxin
   22    24     1     0     0
SMALL
No Charge or Current Charge


@<TRIPOS>ATOM
      1 C1         -1.8580    0.7400    0.8000 ca        1 MOL     -0.126700
      2 C2         -1.0040   -0.2570    0.3260 ca        1 MOL     -0.126400
      3 C3         -1.4370   -1.5820    0.2690 ca        1 MOL     -0.112700
      4 C4         -2.7270   -1.9050    0.6890 ca        1 MOL      0.061400
      5 C5         -3.5800   -0.9100    1.1630 ca        1 MOL      0.060500
      6 C6         -3.1490    0.4150    1.2200 ca        1 MOL     -0.114900
      7 O1         -4.8560   -1.1830    1.5850 os        1 MOL     -0.222300
      8 C7         -5.2390   -2.4980    1.5120 ca        1 MOL      0.071600
      9 C8         -6.5290   -2.8210    1.9320 ca        1 MOL     -0.117500
     10 C9         -6.9620   -4.1460    1.8750 ca        1 MOL     -0.119600
     11 C10        -6.1070   -5.1430    1.4010 ca        1 MOL     -0.126000
     12 C11        -4.8170   -4.8180    0.9820 ca        1 MOL      0.024800
     13 C12        -4.3860   -3.4940    1.0380 ca        1 MOL      0.069600
     14 O2         -3.1090   -3.2200    0.6160 os        1 MOL     -0.211800
     15 Cl1        -3.7900   -6.0790    0.4010 cl        1 MOL     -0.060000
     16 H1         -1.5180    1.7710    0.8430 ha        1 MOL      0.140300
     17 H2          0.0000   -0.0000    0.0000 ha        1 MOL      0.140300
     18 H3         -0.7660   -2.3520   -0.1010 ha        1 MOL      0.158000
     19 H4         -3.8080    1.1960    1.5870 ha        1 MOL      0.155300
     20 H5         -7.1990   -2.0510    2.3020 ha        1 MOL      0.158700
     21 H6         -7.9660   -4.4030    2.2010 ha        1 MOL      0.144700
     22 H7         -6.4630   -6.1700    1.3650 ha        1 MOL      0.152700
@<TRIPOS>BOND
     1    1    6 ar  
     2    1    2 ar  
     3    2    3 ar  
     4    3    4 ar  
     5    4   14 1   
     6    4    5 ar  
     7    5    6 ar  
     8    5    7 1   
     9    7    8 1   
    10    8   13 ar  
    11    8    9 ar  
    12    9   10 ar  
    13   10   11 ar  
    14   11   12 ar  
    15   12   13 ar  
    16   13   14 1   
    17   12   15 1   
    18    1   16 1   
    19    2   17 1   
    20    3   18 1   
    21    6   19 1   
    22    9   20 1   
    23   10   21 1   
    24   11   22 1   
@<TRIPOS>SUBSTRUCTURE
     1 MOL         1 TEMP              0 ****  ****    0 ROOT
