@<TRIPOS>MOLECULE
N-methyl-N-(2,2,2-trifluoroethyl)aniline
   23    23     1     0     0
SMALL
No Charge or Current Charge


@<TRIPOS>ATOM
      1 C1          1.1030   -1.9180   -2.3120 c3        1 MOL      0.208700
      2 N1          1.9290   -1.0140   -1.5220 nh        1 MOL     -0.705700
      3 C2          2.7910   -0.0760   -2.2300 c3        1 MOL      0.216800
      4 C3          4.1460   -0.6730   -2.4730 c3        1 MOL      0.574700
      5 F1          4.0230   -1.7940   -3.2180 f         1 MOL     -0.240700
      6 F2          4.9550    0.1750   -3.1410 f         1 MOL     -0.240700
      7 F3          4.7570   -1.0140   -1.3180 f         1 MOL     -0.240700
      8 C4          1.8850   -1.0360   -0.1120 ca        1 MOL      0.186600
      9 C5          2.9370   -0.4950    0.6270 ca        1 MOL     -0.183800
     10 C6          2.8930   -0.5160    2.0210 ca        1 MOL     -0.093800
     11 C7          1.7980   -1.0780    2.6760 ca        1 MOL     -0.164500
     12 C8          0.7460   -1.6200    1.9370 ca        1 MOL     -0.093800
     13 C9          0.7890   -1.5990    0.5420 ca        1 MOL     -0.183800
     14 H1          0.5130   -2.5600   -1.6530 h1        1 MOL      0.044200
     15 H2          1.7330   -2.5490   -2.9460 h1        1 MOL      0.044200
     16 H3          0.4230   -1.3490   -2.9510 h1        1 MOL      0.044200
     17 H4          2.2860    0.1650   -3.1630 h1        1 MOL      0.084000
     18 H5          2.8520    0.8160   -1.6120 h1        1 MOL      0.084000
     19 H6          3.7950   -0.0530    0.1260 ha        1 MOL      0.131500
     20 H7          3.7120   -0.0940    2.5970 ha        1 MOL      0.131700
     21 H8          1.7630   -1.0950    3.7610 ha        1 MOL      0.133800
     22 H9         -0.1080   -2.0570    2.4460 ha        1 MOL      0.131700
     23 H10        -0.0360   -2.0230   -0.0240 ha        1 MOL      0.131500
@<TRIPOS>BOND
     1    1    2 1   
     2    2    3 1   
     3    3    4 1   
     4    4    5 1   
     5    4    6 1   
     6    4    7 1   
     7    2    8 1   
     8    8   13 ar  
     9    8    9 ar  
    10    9   10 ar  
    11   10   11 ar  
    12   11   12 ar  
    13   12   13 ar  
    14    1   14 1   
    15    1   15 1   
    16    1   16 1   
    17    3   17 1   
    18    3   18 1   
    19    9   19 1   
    20   10   20 1   
    21   11   21 1   
    22   12   22 1   
    23   13   23 1   
@<TRIPOS>SUBSTRUCTURE
     1 MOL         1 TEMP              0 ****  ****    0 ROOT
