@<TRIPOS>MOLECULE
2,4-dimethylpentan-3-one
   22    21     1     0     0
SMALL
No Charge or Current Charge


@<TRIPOS>ATOM
      1 C1          2.2500    1.2050    0.3010 c3        1 MOL     -0.086200
      2 C2          0.8440    0.9850   -0.2500 c3        1 MOL     -0.161400
      3 C3          0.0380    2.2790   -0.2280 c3        1 MOL     -0.086200
      4 C4          0.1060   -0.0860    0.5490 c         1 MOL      0.566800
      5 O1          0.3360   -0.2750    1.7440 o         1 MOL     -0.527800
      6 C5         -0.9340   -0.9130   -0.2060 c3        1 MOL     -0.161400
      7 C6         -2.0530   -1.3660    0.7270 c3        1 MOL     -0.086200
      8 C7         -0.2520   -2.1060   -0.8640 c3        1 MOL     -0.086200
      9 H1          2.8360    0.2790    0.2890 hc        1 MOL      0.042500
     10 H2          2.2090    1.5660    1.3340 hc        1 MOL      0.042500
     11 H3          2.7900    1.9470   -0.2960 hc        1 MOL      0.042500
     12 H4          0.9410    0.6340   -1.2840 hc        1 MOL      0.059000
     13 H5         -0.9700    2.1210   -0.6240 hc        1 MOL      0.042500
     14 H6         -0.0680    2.6630    0.7920 hc        1 MOL      0.042500
     15 H7          0.5220    3.0500   -0.8360 hc        1 MOL      0.042500
     16 H8         -1.3790   -0.2760   -0.9790 hc        1 MOL      0.059000
     17 H9         -2.7960   -1.9580    0.1830 hc        1 MOL      0.042500
     18 H10        -1.6550   -1.9840    1.5380 hc        1 MOL      0.042500
     19 H11        -2.5730   -0.5130    1.1760 hc        1 MOL      0.042500
     20 H12        -0.9720   -2.7200   -1.4160 hc        1 MOL      0.042500
     21 H13         0.5220   -1.7760   -1.5650 hc        1 MOL      0.042500
     22 H14         0.2230   -2.7500   -0.1170 hc        1 MOL      0.042500
@<TRIPOS>BOND
     1    1    2 1   
     2    2    3 1   
     3    2    4 1   
     4    4    5 2   
     5    4    6 1   
     6    6    7 1   
     7    6    8 1   
     8    1    9 1   
     9    1   10 1   
    10    1   11 1   
    11    2   12 1   
    12    3   13 1   
    13    3   14 1   
    14    3   15 1   
    15    6   16 1   
    16    7   17 1   
    17    7   18 1   
    18    7   19 1   
    19    8   20 1   
    20    8   21 1   
    21    8   22 1   
@<TRIPOS>SUBSTRUCTURE
     1 MOL         1 TEMP              0 ****  ****    0 ROOT
