@<TRIPOS>MOLECULE
3-methoxyphenol
   17    17     1     0     0
SMALL
No Charge or Current Charge


@<TRIPOS>ATOM
      1 C1          0.8350   -0.3930   -2.1380 c3        1 MOL      0.108900
      2 O1          1.9270   -1.0160   -1.4730 os        1 MOL     -0.319300
      3 C2          1.8850   -1.0360   -0.1120 ca        1 MOL      0.157000
      4 C3          2.9210   -1.6310    0.6080 ca        1 MOL     -0.189200
      5 C4          2.8780   -1.6520    2.0020 ca        1 MOL     -0.068400
      6 C5          1.8000   -1.0790    2.6760 ca        1 MOL     -0.190200
      7 C6          0.7640   -0.4840    1.9550 ca        1 MOL      0.155800
      8 C7          0.8070   -0.4630    0.5610 ca        1 MOL     -0.289100
      9 O2         -0.2880    0.0750    2.6130 oh        1 MOL     -0.496000
     10 H1          0.9900   -0.4440   -3.2190 h1        1 MOL      0.045000
     11 H2          0.7600    0.6490   -1.8190 h1        1 MOL      0.045000
     12 H3         -0.0860   -0.9200   -1.8790 h1        1 MOL      0.045000
     13 H4          3.7640   -2.0780    0.0890 ha        1 MOL      0.150900
     14 H5          3.6850   -2.1140    2.5630 ha        1 MOL      0.136500
     15 H6          1.7710   -1.0990    3.7620 ha        1 MOL      0.151800
     16 H7         -0.0000    0.0010   -0.0010 ha        1 MOL      0.138100
     17 H8         -0.9230    0.4460    1.9790 ho        1 MOL      0.418400
@<TRIPOS>BOND
     1    1    2 1   
     2    2    3 1   
     3    3    8 ar  
     4    3    4 ar  
     5    4    5 ar  
     6    5    6 ar  
     7    6    7 ar  
     8    7    8 ar  
     9    7    9 1   
    10    1   10 1   
    11    1   11 1   
    12    1   12 1   
    13    4   13 1   
    14    5   14 1   
    15    6   15 1   
    16    8   16 1   
    17    9   17 1   
@<TRIPOS>SUBSTRUCTURE
     1 MOL         1 TEMP              0 ****  ****    0 ROOT
