@<TRIPOS>MOLECULE
1-(p-tolyl)ethanone
   20    20     1     0     0
SMALL
No Charge or Current Charge


@<TRIPOS>ATOM
      1 C1          1.9300   -1.0140   -1.6030 c3        1 MOL     -0.059900
      2 C2          1.8850   -1.0360   -0.1120 ca        1 MOL     -0.050000
      3 C3          2.9210   -1.6310    0.6080 ca        1 MOL     -0.143500
      4 C4          2.8780   -1.6520    2.0020 ca        1 MOL     -0.082600
      5 C5          1.8000   -1.0790    2.6760 ca        1 MOL     -0.178000
      6 C6          0.7640   -0.4840    1.9550 ca        1 MOL     -0.082600
      7 C7          0.8070   -0.4630    0.5610 ca        1 MOL     -0.143500
      8 C8          1.7550   -1.1010    4.1290 c         1 MOL      0.577300
      9 O1          2.2560   -1.9770    4.8380 o         1 MOL     -0.532900
     10 C9          1.0520    0.0320    4.8190 c3        1 MOL     -0.198900
     11 H1          2.4380   -0.1080   -1.9490 hc        1 MOL      0.048200
     12 H2          2.4630   -1.8880   -1.9920 hc        1 MOL      0.048200
     13 H3          0.9200   -1.0360   -2.0250 hc        1 MOL      0.048200
     14 H4          3.7650   -2.0800    0.0920 ha        1 MOL      0.135900
     15 H5          3.6910   -2.1180    2.5540 ha        1 MOL      0.142000
     16 H6         -0.0810   -0.0350    2.4700 ha        1 MOL      0.142000
     17 H7         -0.0050    0.0020    0.0080 ha        1 MOL      0.135900
     18 H8         -0.0210   -0.1470    4.9900 hc        1 MOL      0.064700
     19 H9          1.1460    0.9900    4.2850 hc        1 MOL      0.064700
     20 H10         1.4480    0.2390    5.8290 hc        1 MOL      0.064700
@<TRIPOS>BOND
     1    1    2 1   
     2    2    7 ar  
     3    2    3 ar  
     4    3    4 ar  
     5    4    5 ar  
     6    5    6 ar  
     7    6    7 ar  
     8    5    8 1   
     9    8    9 2   
    10    8   10 1   
    11    1   11 1   
    12    1   12 1   
    13    1   13 1   
    14    3   14 1   
    15    4   15 1   
    16    6   16 1   
    17    7   17 1   
    18   10   18 1   
    19   10   19 1   
    20   10   20 1   
@<TRIPOS>SUBSTRUCTURE
     1 MOL         1 TEMP              0 ****  ****    0 ROOT
