@<TRIPOS>MOLECULE
propane-1-thiol
   12    11     1     0     0
SMALL
No Charge or Current Charge


@<TRIPOS>ATOM
      1 C1          0.1580   -0.4970    0.9620 c3        1 MOL     -0.093800
      2 C2          1.6400   -0.5220    1.3060 c3        1 MOL     -0.084300
      3 C3          1.8810   -1.2100    2.6450 c3        1 MOL      0.006000
      4 S1          3.6530   -1.2300    3.0390 sh        1 MOL     -0.379200
      5 H1         -0.0140   -0.0030    0.0010 hc        1 MOL      0.036600
      6 H2         -0.2330   -1.5180    0.8940 hc        1 MOL      0.036600
      7 H3         -0.4140    0.0350    1.7290 hc        1 MOL      0.036600
      8 H4          2.0110    0.5090    1.3340 hc        1 MOL      0.048300
      9 H5          2.1780   -1.0440    0.5060 hc        1 MOL      0.048300
     10 H6          1.3530   -0.6870    3.4490 h1        1 MOL      0.072800
     11 H7          1.5200   -2.2430    2.6190 h1        1 MOL      0.072800
     12 H8          4.0310   -1.9270    1.9600 hs        1 MOL      0.199500
@<TRIPOS>BOND
     1    1    2 1   
     2    2    3 1   
     3    3    4 1   
     4    1    5 1   
     5    1    6 1   
     6    1    7 1   
     7    2    8 1   
     8    2    9 1   
     9    3   10 1   
    10    3   11 1   
    11    4   12 1   
@<TRIPOS>SUBSTRUCTURE
     1 MOL         1 TEMP              0 ****  ****    0 ROOT
