@<TRIPOS>MOLECULE
propan-2-ol
   12    11     1     0     0
SMALL
No Charge or Current Charge


@<TRIPOS>ATOM
      1 C1          1.0770    0.0500    0.1960 c3        1 MOL     -0.111100
      2 C2          1.3530    0.9190    1.4130 c3        1 MOL      0.138300
      3 C3          2.8430    1.0380    1.6980 c3        1 MOL     -0.111100
      4 O1          0.8120    2.2180    1.1940 oh        1 MOL     -0.601600
      5 H1          0.0030   -0.0290    0.0000 hc        1 MOL      0.043300
      6 H2          1.5640    0.4690   -0.6910 hc        1 MOL      0.043300
      7 H3          1.4830   -0.9590    0.3310 hc        1 MOL      0.043300
      8 H4          0.8470    0.4960    2.2870 h1        1 MOL      0.028400
      9 H5          3.0310    1.6650    2.5750 hc        1 MOL      0.043300
     10 H6          3.3610    1.4750    0.8370 hc        1 MOL      0.043300
     11 H7          3.2910    0.0530    1.8680 hc        1 MOL      0.043300
     12 H8         -0.1410    2.1020    1.0590 ho        1 MOL      0.397100
@<TRIPOS>BOND
     1    1    2 1   
     2    2    3 1   
     3    2    4 1   
     4    1    5 1   
     5    1    6 1   
     6    1    7 1   
     7    2    8 1   
     8    3    9 1   
     9    3   10 1   
    10    3   11 1   
    11    4   12 1   
@<TRIPOS>SUBSTRUCTURE
     1 MOL         1 TEMP              0 ****  ****    0 ROOT
