@<TRIPOS>MOLECULE
[(E)-2-chloro-1-(2,4-dichlorophenyl)vinyl]
   34    34     1     0     0
SMALL
No Charge or Current Charge


@<TRIPOS>ATOM
      1 C1          0.9200    3.5300    0.2260 c3        1 MOL     -0.096700
      2 C2          0.1570    2.2640    0.5510 c3        1 MOL      0.161900
      3 O1          0.6020    1.2240   -0.3030 os        1 MOL     -0.570400
      4 P1         -0.0700   -0.2420   -0.1490 p5        1 MOL      1.607300
      5 O2          0.4570   -1.2870   -1.0910 o         1 MOL     -0.782300
      6 O3          0.1210   -0.5730    1.4250 os        1 MOL     -0.570400
      7 C3          1.3840   -1.0410    1.8670 c3        1 MOL      0.161900
      8 C4          1.3280   -1.2820    3.3620 c3        1 MOL     -0.096700
      9 O4         -1.6550    0.0610   -0.2760 os        1 MOL     -0.473700
     10 C5         -2.6030   -0.9020   -0.2030 ce        1 MOL      0.185900
     11 C6         -2.3280   -2.2160   -0.0160 c2        1 MOL     -0.156700
     12 Cl1        -3.5500   -3.4170    0.0730 cl        1 MOL     -0.066800
     13 C7         -4.0090   -0.4300   -0.3200 ca        1 MOL     -0.052200
     14 C8         -4.5710   -0.3710   -1.5960 ca        1 MOL     -0.080400
     15 C9         -5.8860    0.0630   -1.7590 ca        1 MOL     -0.132900
     16 C10        -6.6400    0.4390   -0.6470 ca        1 MOL      0.037200
     17 C11        -6.0780    0.3790    0.6280 ca        1 MOL     -0.129400
     18 C12        -4.7630   -0.0550    0.7920 ca        1 MOL      0.056400
     19 Cl2        -4.1160   -0.1110    2.3950 cl        1 MOL     -0.062500
     20 Cl3        -8.2620    0.9750   -0.8500 cl        1 MOL     -0.081100
     21 H1          0.6000    4.3540    0.8690 hc        1 MOL      0.050100
     22 H2          1.9960    3.3760    0.3570 hc        1 MOL      0.050100
     23 H3          0.7640    3.8170   -0.8200 hc        1 MOL      0.050100
     24 H4         -0.9160    2.4120    0.3960 h1        1 MOL      0.046700
     25 H5          0.3320    1.9660    1.5890 h1        1 MOL      0.046700
     26 H6          1.6220   -1.9710    1.3400 h1        1 MOL      0.046700
     27 H7          2.1440   -0.2910    1.6290 h1        1 MOL      0.046700
     28 H8          2.2890   -1.6450    3.7360 hc        1 MOL      0.050100
     29 H9          1.0680   -0.3590    3.8910 hc        1 MOL      0.050100
     30 H10         0.5530   -2.0160    3.6050 hc        1 MOL      0.050100
     31 H11        -1.3410   -2.6480    0.0840 h4        1 MOL      0.183600
     32 H12        -3.9980   -0.6600   -2.4740 ha        1 MOL      0.150900
     33 H13        -6.3100    0.1050   -2.7590 ha        1 MOL      0.154100
     34 H14        -6.6690    0.6700    1.4940 ha        1 MOL      0.165100
@<TRIPOS>BOND
     1    1    2 1   
     2    2    3 1   
     3    3    4 1   
     4    4    5 2   
     5    4    6 1   
     6    6    7 1   
     7    7    8 1   
     8    4    9 1   
     9    9   10 1   
    10   10   11 2   
    11   11   12 1   
    12   10   13 1   
    13   13   18 ar  
    14   13   14 ar  
    15   14   15 ar  
    16   15   16 ar  
    17   16   17 ar  
    18   17   18 ar  
    19   18   19 1   
    20   16   20 1   
    21    1   21 1   
    22    1   22 1   
    23    1   23 1   
    24    2   24 1   
    25    2   25 1   
    26    7   26 1   
    27    7   27 1   
    28    8   28 1   
    29    8   29 1   
    30    8   30 1   
    31   11   31 1   
    32   14   32 1   
    33   15   33 1   
    34   17   34 1   
@<TRIPOS>SUBSTRUCTURE
     1 MOL         1 TEMP              0 ****  ****    0 ROOT
