@<TRIPOS>MOLECULE
anisole
   16    16     1     0     0
SMALL
No Charge or Current Charge


@<TRIPOS>ATOM
      1 C1          0.8350   -0.3920   -2.1380 c3        1 MOL      0.110100
      2 O1          1.9270   -1.0160   -1.4730 os        1 MOL     -0.323700
      3 C2          1.8850   -1.0360   -0.1120 ca        1 MOL      0.119300
      4 C3          2.9210   -1.6310    0.6080 ca        1 MOL     -0.179100
      5 C4          2.8780   -1.6520    2.0020 ca        1 MOL     -0.098500
      6 C5          1.8000   -1.0790    2.6760 ca        1 MOL     -0.163500
      7 C6          0.7640   -0.4840    1.9550 ca        1 MOL     -0.098500
      8 C7          0.8070   -0.4630    0.5610 ca        1 MOL     -0.179100
      9 H1          0.9890   -0.4420   -3.2180 h1        1 MOL      0.044000
     10 H2          0.7590    0.6510   -1.8170 h1        1 MOL      0.044000
     11 H3         -0.0870   -0.9180   -1.8780 h1        1 MOL      0.044000
     12 H4          3.7640   -2.0780    0.0890 ha        1 MOL      0.142200
     13 H5          3.6850   -2.1140    2.5630 ha        1 MOL      0.131800
     14 H6          1.7670   -1.0930    3.7610 ha        1 MOL      0.132900
     15 H7         -0.0760   -0.0370    2.4800 ha        1 MOL      0.131800
     16 H8         -0.0030    0.0010    0.0050 ha        1 MOL      0.142200
@<TRIPOS>BOND
     1    1    2 1   
     2    2    3 1   
     3    3    8 ar  
     4    3    4 ar  
     5    4    5 ar  
     6    5    6 ar  
     7    6    7 ar  
     8    7    8 ar  
     9    1    9 1   
    10    1   10 1   
    11    1   11 1   
    12    4   12 1   
    13    5   13 1   
    14    6   14 1   
    15    7   15 1   
    16    8   16 1   
@<TRIPOS>SUBSTRUCTURE
     1 MOL         1 TEMP              0 ****  ****    0 ROOT
