@<TRIPOS>MOLECULE
1-acetoxyethyl
   20    19     1     0     0
SMALL
No Charge or Current Charge


@<TRIPOS>ATOM
      1 C1          1.7140   -3.2990   -2.9810 c3        1 MOL     -0.157000
      2 C2          1.6570   -3.3150   -1.4600 c3        1 MOL      0.366100
      3 O1          1.3890   -1.9630   -1.0320 os        1 MOL     -0.436700
      4 C3          1.2990   -1.7610    0.3130 c         1 MOL      0.646200
      5 O2          1.4230   -2.6100    1.1850 o         1 MOL     -0.541200
      6 C4          1.0170   -0.3150    0.5840 c3        1 MOL     -0.151500
      7 O3          2.9240   -3.7760   -0.9490 os        1 MOL     -0.436700
      8 C5          3.1460   -5.1210   -0.9510 c         1 MOL      0.646200
      9 O4          2.3760   -5.9870   -1.3440 o         1 MOL     -0.541200
     10 C6          4.5060   -5.4020   -0.3890 c3        1 MOL     -0.151500
     11 H1          1.9150   -4.3000   -3.3750 hc        1 MOL      0.068400
     12 H2          2.4810   -2.6090   -3.3450 hc        1 MOL      0.068400
     13 H3          0.7550   -2.9700   -3.3970 hc        1 MOL      0.068400
     14 H4          0.8360   -3.9590   -1.1230 h2        1 MOL      0.079400
     15 H5         -0.0620   -0.1460    0.6120 hc        1 MOL      0.078800
     16 H6          1.4780   -0.0180    1.5300 hc        1 MOL      0.078800
     17 H7          1.4430    0.2940   -0.2180 hc        1 MOL      0.078800
     18 H8          4.4390   -5.5390    0.6930 hc        1 MOL      0.078800
     19 H9          4.9280   -6.2900   -0.8650 hc        1 MOL      0.078800
     20 H10         5.1650   -4.5530   -0.5920 hc        1 MOL      0.078800
@<TRIPOS>BOND
     1    1    2 1   
     2    2    3 1   
     3    3    4 1   
     4    4    5 2   
     5    4    6 1   
     6    2    7 1   
     7    7    8 1   
     8    8    9 2   
     9    8   10 1   
    10    1   11 1   
    11    1   12 1   
    12    1   13 1   
    13    2   14 1   
    14    6   15 1   
    15    6   16 1   
    16    6   17 1   
    17   10   18 1   
    18   10   19 1   
    19   10   20 1   
@<TRIPOS>SUBSTRUCTURE
     1 MOL         1 TEMP              0 ****  ****    0 ROOT
