@<TRIPOS>MOLECULE
m-xylene
   18    18     1     0     0
SMALL
No Charge or Current Charge


@<TRIPOS>ATOM
      1 C1          1.9310   -1.0130   -1.6030 c3        1 MOL     -0.053600
      2 C2          1.8850   -1.0360   -0.1120 ca        1 MOL     -0.073900
      3 C3          2.9210   -1.6310    0.6080 ca        1 MOL     -0.135200
      4 C4          2.8780   -1.6520    2.0020 ca        1 MOL     -0.123700
      5 C5          1.8000   -1.0790    2.6760 ca        1 MOL     -0.135200
      6 C6          0.7640   -0.4840    1.9550 ca        1 MOL     -0.073900
      7 C7          0.8070   -0.4630    0.5610 ca        1 MOL     -0.130900
      8 C8         -0.3890    0.1290    2.6760 c3        1 MOL     -0.053600
      9 H1          2.4400   -0.1070   -1.9470 hc        1 MOL      0.043500
     10 H2          2.4640   -1.8870   -1.9910 hc        1 MOL      0.043500
     11 H3          0.9220   -1.0340   -2.0260 hc        1 MOL      0.043500
     12 H4          3.7660   -2.0780    0.0920 ha        1 MOL      0.129700
     13 H5          3.6860   -2.1120    2.5640 ha        1 MOL      0.129600
     14 H6          1.7750   -1.0990    3.7620 ha        1 MOL      0.129700
     15 H7         -0.0010   -0.0000   -0.0010 ha        1 MOL      0.130000
     16 H8         -0.1880    1.1860    2.8890 hc        1 MOL      0.043500
     17 H9         -1.3100    0.0630    2.0830 hc        1 MOL      0.043500
     18 H10        -0.5850   -0.3860    3.6250 hc        1 MOL      0.043500
@<TRIPOS>BOND
     1    1    2 1   
     2    2    7 ar  
     3    2    3 ar  
     4    3    4 ar  
     5    4    5 ar  
     6    5    6 ar  
     7    6    7 ar  
     8    6    8 1   
     9    1    9 1   
    10    1   10 1   
    11    1   11 1   
    12    3   12 1   
    13    4   13 1   
    14    5   14 1   
    15    7   15 1   
    16    8   16 1   
    17    8   17 1   
    18    8   18 1   
@<TRIPOS>SUBSTRUCTURE
     1 MOL         1 TEMP              0 ****  ****    0 ROOT
