@<TRIPOS>MOLECULE
isobutyl
   17    16     1     0     0
SMALL
No Charge or Current Charge


@<TRIPOS>ATOM
      1 C1          0.9980   -0.3580   -0.2740 c3        1 MOL     -0.091900
      2 C2          1.8180    0.7470   -0.9440 c3        1 MOL     -0.070000
      3 C3          1.1580    1.1800   -2.2510 c3        1 MOL     -0.091900
      4 C4          1.9990    1.9490   -0.0130 c3        1 MOL      0.136700
      5 O1          2.6750    1.5480    1.1710 os        1 MOL     -0.448500
      6 C5          2.8990    2.5320    2.0860 c         1 MOL      0.629400
      7 O2          2.5840    3.7080    1.9980 o         1 MOL     -0.540800
      8 H1          1.4670   -0.6730    0.6640 hc        1 MOL      0.038600
      9 H2          0.9140   -1.2370   -0.9220 hc        1 MOL      0.038600
     10 H3         -0.0130   -0.0120   -0.0380 hc        1 MOL      0.038600
     11 H4          2.8080    0.3290   -1.1710 hc        1 MOL      0.061200
     12 H5          1.7380    1.9710   -2.7370 hc        1 MOL      0.038600
     13 H6          0.1510    1.5700   -2.0670 hc        1 MOL      0.038600
     14 H7          1.0740    0.3420   -2.9520 hc        1 MOL      0.038600
     15 H8          2.6000    2.7250   -0.4990 h1        1 MOL      0.052500
     16 H9          1.0320    2.3810    0.2670 h1        1 MOL      0.052500
     17 H10         3.4240    2.0990    2.9510 h5        1 MOL      0.079400
@<TRIPOS>BOND
     1    1    2 1   
     2    2    3 1   
     3    2    4 1   
     4    4    5 1   
     5    5    6 1   
     6    6    7 2   
     7    1    8 1   
     8    1    9 1   
     9    1   10 1   
    10    2   11 1   
    11    3   12 1   
    12    3   13 1   
    13    3   14 1   
    14    4   15 1   
    15    4   16 1   
    16    6   17 1   
@<TRIPOS>SUBSTRUCTURE
     1 MOL         1 TEMP              0 ****  ****    0 ROOT
