@<TRIPOS>MOLECULE
N-methylacetamide
   12    11     1     0     0
SMALL
No Charge or Current Charge


@<TRIPOS>ATOM
      1 C1          0.9500   -0.2290    0.5090 c3        1 MOL     -0.176700
      2 C2          0.7450   -0.9430    1.8040 c         1 MOL      0.659700
      3 O1          0.1660   -2.0220    1.8130 o         1 MOL     -0.603700
      4 N1          1.2540   -0.2750    2.9010 n         1 MOL     -0.583800
      5 C3          1.1630   -0.7870    4.2500 c3        1 MOL      0.084100
      6 H1          0.1170    0.4520    0.2680 hc        1 MOL      0.064100
      7 H2          1.8510    0.4060    0.5170 hc        1 MOL      0.064100
      8 H3          1.0600   -0.8770   -0.3750 hc        1 MOL      0.064100
      9 H4          1.7140    0.6180    2.7530 hn        1 MOL      0.304900
     10 H5          2.0380   -1.4000    4.4700 h1        1 MOL      0.041000
     11 H6          0.2640   -1.3950    4.3550 h1        1 MOL      0.041000
     12 H7          1.1190    0.0420    4.9580 h1        1 MOL      0.041000
@<TRIPOS>BOND
     1    1    2 1   
     2    2    3 2   
     3    2    4 1   
     4    4    5 1   
     5    1    6 1   
     6    1    7 1   
     7    1    8 1   
     8    4    9 1   
     9    5   10 1   
    10    5   11 1   
    11    5   12 1   
@<TRIPOS>SUBSTRUCTURE
     1 MOL         1 TEMP              0 ****  ****    0 ROOT
