@<TRIPOS>MOLECULE
isoprene
   13    12     1     0     0
SMALL
No Charge or Current Charge


@<TRIPOS>ATOM
      1 C1         -0.5220   -2.4670   -1.0270 c3        1 MOL     -0.061900
      2 C2         -0.6570   -2.6890    0.4540 ce        1 MOL     -0.080200
      3 C3         -0.9690   -3.9040    0.9360 c2        1 MOL     -0.215200
      4 C4         -0.4460   -1.5740    1.3660 ce        1 MOL     -0.128800
      5 C5         -0.1320   -0.3170    1.0280 c2        1 MOL     -0.211100
      6 H1         -1.4820   -2.1760   -1.4650 hc        1 MOL      0.042800
      7 H2         -0.1890   -3.3710   -1.5490 hc        1 MOL      0.042800
      8 H3          0.2150   -1.6830   -1.2360 hc        1 MOL      0.042800
      9 H4         -1.0690   -4.0790    2.0020 ha        1 MOL      0.113000
     10 H5         -1.1320   -4.7560    0.2830 ha        1 MOL      0.113000
     11 H6         -0.5550   -1.7880    2.4280 ha        1 MOL      0.118200
     12 H7          0.0010    0.4340    1.8000 ha        1 MOL      0.112400
     13 H8         -0.0000    0.0000   -0.0000 ha        1 MOL      0.112400
@<TRIPOS>BOND
     1    1    2 1   
     2    2    3 2   
     3    2    4 1   
     4    4    5 2   
     5    1    6 1   
     6    1    7 1   
     7    1    8 1   
     8    3    9 1   
     9    3   10 1   
    10    4   11 1   
    11    5   12 1   
    12    5   13 1   
@<TRIPOS>SUBSTRUCTURE
     1 MOL         1 TEMP              0 ****  ****    0 ROOT
