@<TRIPOS>MOLECULE
nonan-1-ol
   30    29     1     0     0
SMALL
No Charge or Current Charge


@<TRIPOS>ATOM
      1 C1         -1.8710    1.8430    4.1150 c3        1 MOL     -0.091700
      2 C2         -2.3270    1.9110    2.6650 c3        1 MOL     -0.080200
      3 C3         -1.9720    3.2560    2.0320 c3        1 MOL     -0.078800
      4 C4         -2.4110    3.3760    0.5690 c3        1 MOL     -0.078100
      5 C5         -2.0820    4.7040   -0.1200 c3        1 MOL     -0.078000
      6 C6         -2.5440    4.7640   -1.5780 c3        1 MOL     -0.078300
      7 C7         -2.1910    6.1100   -2.2160 c3        1 MOL     -0.077400
      8 C8         -2.6520    6.1710   -3.6750 c3        1 MOL     -0.084700
      9 C9         -2.3110    7.5030   -4.3320 c3        1 MOL      0.132300
     10 O1         -2.7600    7.5080   -5.6790 oh        1 MOL     -0.602800
     11 H1         -2.1340    0.8740    4.5500 hc        1 MOL      0.032800
     12 H2         -0.7860    1.9660    4.1910 hc        1 MOL      0.032800
     13 H3         -2.3490    2.6250    4.7130 hc        1 MOL      0.032800
     14 H4         -3.4100    1.7480    2.6320 hc        1 MOL      0.037700
     15 H5         -1.8560    1.0970    2.1020 hc        1 MOL      0.037700
     16 H6         -2.4050    4.0720    2.6230 hc        1 MOL      0.038400
     17 H7         -0.8840    3.3940    2.0710 hc        1 MOL      0.038400
     18 H8         -3.4950    3.2150    0.5100 hc        1 MOL      0.039800
     19 H9         -1.9490    2.5580    0.0020 hc        1 MOL      0.039800
     20 H10        -2.5720    5.5070    0.4440 hc        1 MOL      0.039200
     21 H11        -1.0060    4.9010   -0.0620 hc        1 MOL      0.039200
     22 H12        -3.6280    4.6080   -1.6270 hc        1 MOL      0.041100
     23 H13        -2.0720    3.9610   -2.1550 hc        1 MOL      0.041100
     24 H14        -2.6630    6.9210   -1.6480 hc        1 MOL      0.039200
     25 H15        -1.1060    6.2650   -2.1600 hc        1 MOL      0.039200
     26 H16        -2.1720    5.3590   -4.2330 hc        1 MOL      0.055100
     27 H17        -3.7360    6.0150   -3.7250 hc        1 MOL      0.055100
     28 H18        -2.8090    8.3210   -3.8010 h1        1 MOL      0.019900
     29 H19        -1.2310    7.6820   -4.3180 h1        1 MOL      0.019900
     30 H20        -2.5200    8.3720   -6.0520 ho        1 MOL      0.398600
@<TRIPOS>BOND
     1    1    2 1   
     2    2    3 1   
     3    3    4 1   
     4    4    5 1   
     5    5    6 1   
     6    6    7 1   
     7    7    8 1   
     8    8    9 1   
     9    9   10 1   
    10    1   11 1   
    11    1   12 1   
    12    1   13 1   
    13    2   14 1   
    14    2   15 1   
    15    3   16 1   
    16    3   17 1   
    17    4   18 1   
    18    4   19 1   
    19    5   20 1   
    20    5   21 1   
    21    6   22 1   
    22    6   23 1   
    23    7   24 1   
    24    7   25 1   
    25    8   26 1   
    26    8   27 1   
    27    9   28 1   
    28    9   29 1   
    29   10   30 1   
@<TRIPOS>SUBSTRUCTURE
     1 MOL         1 TEMP              0 ****  ****    0 ROOT
