@<TRIPOS>MOLECULE
1-propoxypropane
   21    20     1     0     0
SMALL
No Charge or Current Charge


@<TRIPOS>ATOM
      1 C1         -1.1990   -0.8870    2.8810 c3        1 MOL     -0.092800
      2 C2          0.1100   -0.6530    3.6140 c3        1 MOL     -0.084800
      3 C3          1.2750   -1.3490    2.9270 c3        1 MOL      0.131100
      4 O1          2.4630   -1.0900    3.6620 os        1 MOL     -0.425200
      5 C4          3.5920   -1.7170    3.0680 c3        1 MOL      0.131100
      6 C5          4.8240   -1.4000    3.9010 c3        1 MOL     -0.084800
      7 C6          6.0750   -2.0390    3.3240 c3        1 MOL     -0.092800
      8 H1         -2.0270   -0.3800    3.3870 hc        1 MOL      0.034700
      9 H2         -1.1370   -0.4990    1.8600 hc        1 MOL      0.034700
     10 H3         -1.4320   -1.9550    2.8260 hc        1 MOL      0.034700
     11 H4          0.0260   -1.0080    4.6480 hc        1 MOL      0.053400
     12 H5          0.3120    0.4230    3.6810 hc        1 MOL      0.053400
     13 H6          1.1170   -2.4320    2.8910 h1        1 MOL      0.024000
     14 H7          1.4080   -0.9750    1.9070 h1        1 MOL      0.024000
     15 H8          3.7020   -1.3390    2.0470 h1        1 MOL      0.024000
     16 H9          3.4110   -2.7960    3.0310 h1        1 MOL      0.024000
     17 H10         4.9570   -0.3130    3.9630 hc        1 MOL      0.053400
     18 H11         4.6710   -1.7440    4.9310 hc        1 MOL      0.053400
     19 H12         6.9530   -1.8030    3.9330 hc        1 MOL      0.034700
     20 H13         5.9650   -3.1280    3.2940 hc        1 MOL      0.034700
     21 H14         6.2600   -1.6890    2.3040 hc        1 MOL      0.034700
@<TRIPOS>BOND
     1    1    2 1   
     2    2    3 1   
     3    3    4 1   
     4    4    5 1   
     5    5    6 1   
     6    6    7 1   
     7    1    8 1   
     8    1    9 1   
     9    1   10 1   
    10    2   11 1   
    11    2   12 1   
    12    3   13 1   
    13    3   14 1   
    14    5   15 1   
    15    5   16 1   
    16    6   17 1   
    17    6   18 1   
    18    7   19 1   
    19    7   20 1   
    20    7   21 1   
@<TRIPOS>SUBSTRUCTURE
     1 MOL         1 TEMP              0 ****  ****    0 ROOT
