@<TRIPOS>MOLECULE
N-methylaniline
   17    17     1     0     0
SMALL
No Charge or Current Charge


@<TRIPOS>ATOM
      1 C1          3.0050   -1.5810   -2.2990 c3        1 MOL      0.220900
      2 N1          1.9290   -1.0140   -1.5220 nh        1 MOL     -0.806800
      3 C2          1.8850   -1.0360   -0.1120 ca        1 MOL      0.199600
      4 C3          2.9210   -1.6310    0.6080 ca        1 MOL     -0.211300
      5 C4          2.8780   -1.6520    2.0020 ca        1 MOL     -0.084200
      6 C5          1.8000   -1.0790    2.6760 ca        1 MOL     -0.188500
      7 C6          0.7640   -0.4840    1.9550 ca        1 MOL     -0.084200
      8 C7          0.8070   -0.4630    0.5610 ca        1 MOL     -0.211300
      9 H1          2.8130   -1.4400   -3.3660 h1        1 MOL      0.032500
     10 H2          3.0940   -2.6520   -2.0960 h1        1 MOL      0.032500
     11 H3          3.9520   -1.0970   -2.0450 h1        1 MOL      0.032500
     12 H4          1.1620   -0.5740   -2.0180 hn        1 MOL      0.430000
     13 H5          3.7670   -2.0800    0.0930 ha        1 MOL      0.128100
     14 H6          3.6850   -2.1140    2.5640 ha        1 MOL      0.126000
     15 H7          1.7660   -1.0950    3.7610 ha        1 MOL      0.129900
     16 H8         -0.0750   -0.0370    2.4790 ha        1 MOL      0.126000
     17 H9         -0.0060    0.0030    0.0090 ha        1 MOL      0.128100
@<TRIPOS>BOND
     1    1    2 1   
     2    2    3 1   
     3    3    8 ar  
     4    3    4 ar  
     5    4    5 ar  
     6    5    6 ar  
     7    6    7 ar  
     8    7    8 ar  
     9    1    9 1   
    10    1   10 1   
    11    1   11 1   
    12    2   12 1   
    13    4   13 1   
    14    5   14 1   
    15    6   15 1   
    16    7   16 1   
    17    8   17 1   
@<TRIPOS>SUBSTRUCTURE
     1 MOL         1 TEMP              0 ****  ****    0 ROOT
