@<TRIPOS>MOLECULE
prop-1-yne
    7     6     1     0     0
SMALL
No Charge or Current Charge


@<TRIPOS>ATOM
      1 C1         -0.7150    0.3700   -0.7410 c3        1 MOL     -0.022100
      2 C2         -0.6480    1.8280   -0.8450 c1        1 MOL     -0.139300
      3 C3         -0.5940    3.0240   -0.9300 c1        1 MOL     -0.163500
      4 H1          0.2430   -0.0840   -1.0130 hc        1 MOL      0.053900
      5 H2         -0.9580    0.0640    0.2810 hc        1 MOL      0.053900
      6 H3         -1.4830   -0.0330   -1.4070 hc        1 MOL      0.053900
      7 H4         -0.5460    4.0850   -1.0060 ha        1 MOL      0.163300
@<TRIPOS>BOND
     1    1    2 1   
     2    2    3 3   
     3    1    4 1   
     4    1    5 1   
     5    1    6 1   
     6    3    7 1   
@<TRIPOS>SUBSTRUCTURE
     1 MOL         1 TEMP              0 ****  ****    0 ROOT
