@<TRIPOS>MOLECULE
1,1,2,2-tetrachloroethane
    8     7     1     0     0
SMALL
No Charge or Current Charge


@<TRIPOS>ATOM
      1 C1         -0.4360    0.0140    0.6390 c3        1 MOL      0.122100
      2 C2          0.4210    0.2030   -0.6170 c3        1 MOL      0.122100
      3 Cl1         1.5990   -1.1150   -0.8720 cl        1 MOL     -0.117800
      4 Cl2        -0.6000    0.3690   -2.0750 cl        1 MOL     -0.117800
      5 Cl3        -1.4020   -1.4880    0.6150 cl        1 MOL     -0.117800
      6 Cl4         0.5700    0.0420    2.1160 cl        1 MOL     -0.117800
      7 H1         -1.1450    0.8420    0.7390 h2        1 MOL      0.113400
      8 H2          0.9980    1.1300   -0.5430 h2        1 MOL      0.113400
@<TRIPOS>BOND
     1    1    2 1   
     2    2    3 1   
     3    2    4 1   
     4    1    5 1   
     5    1    6 1   
     6    1    7 1   
     7    2    8 1   
@<TRIPOS>SUBSTRUCTURE
     1 MOL         1 TEMP              0 ****  ****    0 ROOT
