@<TRIPOS>MOLECULE
1-bromo-2-chloro-ethane
    8     7     1     0     0
SMALL
No Charge or Current Charge


@<TRIPOS>ATOM
      1 C1         -0.2690    0.5220    0.4900 c3        1 MOL      0.034200
      2 C2          0.2380   -0.5480   -0.4510 c3        1 MOL     -0.027400
      3 Br1         1.3410    0.2700   -1.8320 br        1 MOL     -0.159600
      4 Cl1        -1.2790   -0.2090    1.7580 cl        1 MOL     -0.184700
      5 H1          0.5550    1.0470    0.9830 h1        1 MOL      0.080300
      6 H2         -0.8790    1.2640   -0.0350 h1        1 MOL      0.080300
      7 H3         -0.5760   -1.0640   -0.9690 h1        1 MOL      0.088400
      8 H4          0.8700   -1.2820    0.0570 h1        1 MOL      0.088400
@<TRIPOS>BOND
     1    1    2 1   
     2    2    3 1   
     3    1    4 1   
     4    1    5 1   
     5    1    6 1   
     6    2    7 1   
     7    2    8 1   
@<TRIPOS>SUBSTRUCTURE
     1 MOL         1 TEMP              0 ****  ****    0 ROOT
