@<TRIPOS>MOLECULE
pentyl
   26    25     1     0     0
SMALL
No Charge or Current Charge


@<TRIPOS>ATOM
      1 C1          0.7900   -0.3890    0.6490 c3        1 MOL     -0.091600
      2 C2          1.6170   -1.4420   -0.0700 c3        1 MOL     -0.080000
      3 C3          2.2940   -0.8690   -1.3150 c3        1 MOL     -0.079000
      4 C4          3.1240   -1.9290   -2.0350 c3        1 MOL     -0.109300
      5 C5          3.8010   -1.3660   -3.2760 c3        1 MOL      0.142300
      6 O1          4.5540   -2.3990   -3.8970 os        1 MOL     -0.466000
      7 C6          5.2280   -2.0460   -5.0370 c         1 MOL      0.638600
      8 O2          5.2290   -0.9340   -5.5460 o         1 MOL     -0.509800
      9 C7          5.9730   -3.2480   -5.5680 c3        1 MOL     -0.140300
     10 C8          6.7460   -2.9270   -6.8350 c3        1 MOL     -0.094100
     11 H1          0.3090   -0.8080    1.5390 hc        1 MOL      0.033400
     12 H2          1.4140    0.4550    0.9610 hc        1 MOL      0.033400
     13 H3          0.0060   -0.0060   -0.0110 hc        1 MOL      0.033400
     14 H4          0.9680   -2.2800   -0.3510 hc        1 MOL      0.036600
     15 H5          2.3750   -1.8350    0.6180 hc        1 MOL      0.036600
     16 H6          1.5320   -0.4720   -1.9980 hc        1 MOL      0.047700
     17 H7          2.9390   -0.0290   -1.0280 hc        1 MOL      0.047700
     18 H8          2.4900   -2.7780   -2.3210 hc        1 MOL      0.046600
     19 H9          3.8850   -2.3390   -1.3590 hc        1 MOL      0.046600
     20 H10         4.4810   -0.5490   -3.0130 h1        1 MOL      0.065800
     21 H11         3.0600   -0.9970   -3.9920 h1        1 MOL      0.065800
     22 H12         6.6700   -3.5920   -4.7960 hc        1 MOL      0.077400
     23 H13         5.2480   -4.0410   -5.7770 hc        1 MOL      0.077400
     24 H14         7.2790   -3.8090   -7.2050 hc        1 MOL      0.046900
     25 H15         6.0650   -2.5850   -7.6210 hc        1 MOL      0.046900
     26 H16         7.4860   -2.1400   -6.6570 hc        1 MOL      0.046900
@<TRIPOS>BOND
     1    1    2 1   
     2    2    3 1   
     3    3    4 1   
     4    4    5 1   
     5    5    6 1   
     6    6    7 1   
     7    7    8 2   
     8    7    9 1   
     9    9   10 1   
    10    1   11 1   
    11    1   12 1   
    12    1   13 1   
    13    2   14 1   
    14    2   15 1   
    15    3   16 1   
    16    3   17 1   
    17    4   18 1   
    18    4   19 1   
    19    5   20 1   
    20    5   21 1   
    21    9   22 1   
    22    9   23 1   
    23   10   24 1   
    24   10   25 1   
    25   10   26 1   
@<TRIPOS>SUBSTRUCTURE
     1 MOL         1 TEMP              0 ****  ****    0 ROOT
