@<TRIPOS>MOLECULE
2,3-dimethylpyridine
   17    17     1     0     0
SMALL
No Charge or Current Charge


@<TRIPOS>ATOM
      1 C1          2.8940   -0.2500    3.6320 c3        1 MOL     -0.050100
      2 C2          1.6520   -0.6230    2.9000 ca        1 MOL     -0.191500
      3 C3          1.3880   -0.0680    1.6520 ca        1 MOL     -0.094100
      4 C4          0.2270   -0.4200    0.9730 ca        1 MOL     -0.249300
      5 C5         -0.6320   -1.3220    1.5800 ca        1 MOL      0.395700
      6 N1         -0.4090   -1.8820    2.7910 nb        1 MOL     -0.669700
      7 C6          0.7300   -1.5160    3.4210 ca        1 MOL      0.414000
      8 C7          0.9620   -2.1430    4.7560 c3        1 MOL     -0.149600
      9 H1          3.7060   -0.9340    3.3650 hc        1 MOL      0.046000
     10 H2          3.2000    0.7730    3.3890 hc        1 MOL      0.046000
     11 H3          2.7370   -0.2920    4.7150 hc        1 MOL      0.046000
     12 H4          2.0800    0.6380    1.2020 ha        1 MOL      0.135600
     13 H5         -0.0020   -0.0010    0.0000 ha        1 MOL      0.142300
     14 H6         -1.5510   -1.6290    1.0920 h4        1 MOL      0.020100
     15 H7          1.5200   -3.0800    4.6440 hc        1 MOL      0.052900
     16 H8          1.5300   -1.4740    5.4150 hc        1 MOL      0.052900
     17 H9          0.0130   -2.3600    5.2630 hc        1 MOL      0.052900
@<TRIPOS>BOND
     1    1    2 1   
     2    2    7 ar  
     3    2    3 ar  
     4    3    4 ar  
     5    4    5 ar  
     6    5    6 ar  
     7    6    7 ar  
     8    7    8 1   
     9    1    9 1   
    10    1   10 1   
    11    1   11 1   
    12    3   12 1   
    13    4   13 1   
    14    5   14 1   
    15    8   15 1   
    16    8   16 1   
    17    8   17 1   
@<TRIPOS>SUBSTRUCTURE
     1 MOL         1 TEMP              0 ****  ****    0 ROOT
