@<TRIPOS>MOLECULE
pentan-3-one
   16    15     1     0     0
SMALL
No Charge or Current Charge


@<TRIPOS>ATOM
      1 C1          0.1180    0.0610   -1.0830 c3        1 MOL     -0.087200
      2 C2         -0.9880    0.8890   -1.7120 c3        1 MOL     -0.180800
      3 C3         -2.3710    0.3190   -1.4480 c         1 MOL      0.559000
      4 O1         -2.5440   -0.7070   -0.7920 o         1 MOL     -0.528400
      5 C4         -3.5270    1.1010   -2.0500 c3        1 MOL     -0.180800
      6 C5         -4.8780    0.4770   -1.7490 c3        1 MOL     -0.087200
      7 H1          1.0950    0.5050   -1.2960 hc        1 MOL      0.043100
      8 H2         -0.0030    0.0040    0.0030 hc        1 MOL      0.043100
      9 H3          0.1140   -0.9620   -1.4750 hc        1 MOL      0.043100
     10 H4         -0.9560    1.9070   -1.3090 hc        1 MOL      0.061700
     11 H5         -0.8380    0.9360   -2.7960 hc        1 MOL      0.061700
     12 H6         -3.3800    1.1470   -3.1340 hc        1 MOL      0.061700
     13 H7         -3.4970    2.1190   -1.6480 hc        1 MOL      0.061700
     14 H8         -5.6900    1.0610   -2.1950 hc        1 MOL      0.043100
     15 H9         -5.0550    0.4260   -0.6700 hc        1 MOL      0.043100
     16 H10        -4.9260   -0.5390   -2.1520 hc        1 MOL      0.043100
@<TRIPOS>BOND
     1    1    2 1   
     2    2    3 1   
     3    3    4 2   
     4    3    5 1   
     5    5    6 1   
     6    1    7 1   
     7    1    8 1   
     8    1    9 1   
     9    2   10 1   
    10    2   11 1   
    11    5   12 1   
    12    5   13 1   
    13    6   14 1   
    14    6   15 1   
    15    6   16 1   
@<TRIPOS>SUBSTRUCTURE
     1 MOL         1 TEMP              0 ****  ****    0 ROOT
