@<TRIPOS>MOLECULE
2-methylpentan-2-ol
   21    20     1     0     0
SMALL
No Charge or Current Charge


@<TRIPOS>ATOM
      1 C1          1.0890   -0.1580   -0.5330 c3        1 MOL     -0.092100
      2 C2          0.8600   -1.1430   -1.6700 c3        1 MOL     -0.078600
      3 C3          0.4070   -2.5090   -1.1410 c3        1 MOL     -0.063100
      4 C4          0.1540   -3.5660   -2.2350 c3        1 MOL      0.148700
      5 C5         -0.2910   -4.8810   -1.5860 c3        1 MOL     -0.123600
      6 C6          1.3840   -3.8070   -3.1120 c3        1 MOL     -0.123600
      7 O1         -0.9130   -3.1050   -3.0680 oh        1 MOL     -0.597000
      8 H1          1.4120    0.8150   -0.9160 hc        1 MOL      0.031700
      9 H2          1.8530   -0.5270    0.1580 hc        1 MOL      0.031700
     10 H3          0.1630   -0.0110    0.0320 hc        1 MOL      0.031700
     11 H4          0.1070   -0.7300   -2.3510 hc        1 MOL      0.047300
     12 H5          1.7930   -1.2450   -2.2350 hc        1 MOL      0.047300
     13 H6          1.1540   -2.8860   -0.4300 hc        1 MOL      0.045800
     14 H7         -0.5230   -2.3580   -0.5780 hc        1 MOL      0.045800
     15 H8         -0.4780   -5.6500   -2.3450 hc        1 MOL      0.042000
     16 H9         -1.2350   -4.7490   -1.0440 hc        1 MOL      0.042000
     17 H10         0.4610   -5.2610   -0.8880 hc        1 MOL      0.042000
     18 H11         1.1860   -4.5590   -3.8820 hc        1 MOL      0.042000
     19 H12         2.2150   -4.2030   -2.5160 hc        1 MOL      0.042000
     20 H13         1.7200   -2.8840   -3.5960 hc        1 MOL      0.042000
     21 H14        -1.0470   -3.7880   -3.7410 ho        1 MOL      0.396300
@<TRIPOS>BOND
     1    1    2 1   
     2    2    3 1   
     3    3    4 1   
     4    4    5 1   
     5    4    6 1   
     6    4    7 1   
     7    1    8 1   
     8    1    9 1   
     9    1   10 1   
    10    2   11 1   
    11    2   12 1   
    12    3   13 1   
    13    3   14 1   
    14    5   15 1   
    15    5   16 1   
    16    5   17 1   
    17    6   18 1   
    18    6   19 1   
    19    6   20 1   
    20    7   21 1   
@<TRIPOS>SUBSTRUCTURE
     1 MOL         1 TEMP              0 ****  ****    0 ROOT
