@<TRIPOS>MOLECULE
diethyl
   23    22     1     0     0
SMALL
No Charge or Current Charge


@<TRIPOS>ATOM
      1 C1          0.5990   -0.5110    1.9480 c3        1 MOL     -0.124900
      2 C2          0.0980   -0.9060    0.5760 c3        1 MOL      0.135700
      3 O1         -1.1710   -1.5560    0.7110 os        1 MOL     -0.446400
      4 C3         -1.7480   -1.9700   -0.4570 c         1 MOL      0.644400
      5 O2         -1.2750   -1.8310   -1.5750 o         1 MOL     -0.509900
      6 C4         -3.0690   -2.6260   -0.1360 c3        1 MOL     -0.190500
      7 C5         -3.8570   -3.1510   -1.3110 c         1 MOL      0.644400
      8 O3         -3.5160   -3.0880   -2.4840 o         1 MOL     -0.509900
      9 O4         -5.0150   -3.7110   -0.8470 os        1 MOL     -0.446400
     10 C6         -5.8790   -4.2610   -1.8470 c3        1 MOL      0.135700
     11 C7         -7.1000   -4.8330   -1.1670 c3        1 MOL     -0.124900
     12 H1          1.5690   -0.0110    1.8810 hc        1 MOL      0.050200
     13 H2         -0.1120    0.1610    2.4410 hc        1 MOL      0.050200
     14 H3          0.7000   -1.3930    2.5900 hc        1 MOL      0.050200
     15 H4          0.7980   -1.5960    0.0950 h1        1 MOL      0.065200
     16 H5         -0.0250   -0.0220   -0.0570 h1        1 MOL      0.065200
     17 H6         -2.8660   -3.4730    0.5290 hc        1 MOL      0.115400
     18 H7         -3.6910   -1.8820    0.3750 hc        1 MOL      0.115400
     19 H8         -6.1530   -3.4630   -2.5370 h1        1 MOL      0.065200
     20 H9         -5.3300   -5.0360   -2.3820 h1        1 MOL      0.065200
     21 H10        -7.7830   -5.2630   -1.9050 hc        1 MOL      0.050200
     22 H11        -6.8180   -5.6110   -0.4500 hc        1 MOL      0.050200
     23 H12        -7.6310   -4.0580   -0.6040 hc        1 MOL      0.050200
@<TRIPOS>BOND
     1    1    2 1   
     2    2    3 1   
     3    3    4 1   
     4    4    5 2   
     5    4    6 1   
     6    6    7 1   
     7    7    8 2   
     8    7    9 1   
     9    9   10 1   
    10   10   11 1   
    11    1   12 1   
    12    1   13 1   
    13    1   14 1   
    14    2   15 1   
    15    2   16 1   
    16    6   17 1   
    17    6   18 1   
    18   10   19 1   
    19   10   20 1   
    20   11   21 1   
    21   11   22 1   
    22   11   23 1   
@<TRIPOS>SUBSTRUCTURE
     1 MOL         1 TEMP              0 ****  ****    0 ROOT
