@<TRIPOS>MOLECULE
1,1,2,2-tetrachloroethylene
    6     5     1     0     0
SMALL
No Charge or Current Charge


@<TRIPOS>ATOM
      1 C1          0.2020    0.6400   -0.0290 c2        1 MOL      0.062900
      2 C2         -0.2020   -0.6400    0.0290 c2        1 MOL      0.062900
      3 Cl1         0.9120   -1.9720    0.0230 cl        1 MOL     -0.031500
      4 Cl2        -1.8780   -1.0880    0.1160 cl        1 MOL     -0.031500
      5 Cl3        -0.9120    1.9720   -0.0230 cl        1 MOL     -0.031500
      6 Cl4         1.8780    1.0880   -0.1160 cl        1 MOL     -0.031500
@<TRIPOS>BOND
     1    1    2 2   
     2    2    3 1   
     3    2    4 1   
     4    1    5 1   
     5    1    6 1   
@<TRIPOS>SUBSTRUCTURE
     1 MOL         1 TEMP              0 ****  ****    0 ROOT
