@<TRIPOS>MOLECULE
(6S)-6-isopropyl-3-methyl-cyclohex-2-en-1-one
   27    27     1     0     0
SMALL
No Charge or Current Charge


@<TRIPOS>ATOM
      1 C1          0.4170   -2.4710    1.7860 c3        1 MOL     -0.075700
      2 C2          0.1350   -1.2850    0.9100 c2        1 MOL     -0.038200
      3 C3          1.1310   -0.5500    0.3920 ce        1 MOL     -0.259300
      4 C4          0.8420    0.5830   -0.5260 c         1 MOL      0.567700
      5 O1          1.7750    1.2730   -0.9350 o         1 MOL     -0.537700
      6 C5         -0.5970    0.7850   -0.9840 c3        1 MOL     -0.154000
      7 H1         -0.7640    0.1050   -1.8300 hc        1 MOL      0.072800
      8 C6         -1.5540    0.4360    0.1550 c3        1 MOL     -0.073100
      9 C7         -1.3210   -0.9870    0.6590 c3        1 MOL     -0.063000
     10 C8         -0.8280    2.2170   -1.4580 c3        1 MOL     -0.062800
     11 C9         -2.0650    2.2950   -2.3510 c3        1 MOL     -0.090300
     12 C10        -0.9670    3.1620   -0.2670 c3        1 MOL     -0.090300
     13 H2          0.5060   -3.3770    1.1810 hc        1 MOL      0.051100
     14 H3         -0.3920   -2.6100    2.5090 hc        1 MOL      0.051100
     15 H4          1.3490   -2.3230    2.3370 hc        1 MOL      0.051100
     16 H5          2.1730   -0.7670    0.5970 ha        1 MOL      0.147800
     17 H6         -1.4130    1.1380    0.9880 hc        1 MOL      0.052500
     18 H7         -2.5950    0.5380   -0.1750 hc        1 MOL      0.052500
     19 H8         -1.8940   -1.1210    1.5840 hc        1 MOL      0.057000
     20 H9         -1.7090   -1.7090   -0.0690 hc        1 MOL      0.057000
     21 H10         0.0420    2.5310   -2.0480 hc        1 MOL      0.074100
     22 H11        -2.2420    3.3180   -2.6980 hc        1 MOL      0.034900
     23 H12        -2.9570    1.9620   -1.8090 hc        1 MOL      0.034900
     24 H13        -1.9500    1.6540   -3.2320 hc        1 MOL      0.034900
     25 H14        -1.1330    4.1940   -0.5940 hc        1 MOL      0.034900
     26 H15        -0.0620    3.1450    0.3510 hc        1 MOL      0.034900
     27 H16        -1.8100    2.8680    0.3660 hc        1 MOL      0.034900
@<TRIPOS>BOND
     1    1    2 1   
     2    2    9 1   
     3    2    3 2   
     4    3    4 1   
     5    4    5 2   
     6    4    6 1   
     7    6    7 1   
     8    6    8 1   
     9    8    9 1   
    10    6   10 1   
    11   10   11 1   
    12   10   12 1   
    13    1   13 1   
    14    1   14 1   
    15    1   15 1   
    16    3   16 1   
    17    8   17 1   
    18    8   18 1   
    19    9   19 1   
    20    9   20 1   
    21   10   21 1   
    22   11   22 1   
    23   11   23 1   
    24   11   24 1   
    25   12   25 1   
    26   12   26 1   
    27   12   27 1   
@<TRIPOS>SUBSTRUCTURE
     1 MOL         1 TEMP              0 ****  ****    0 ROOT
