@<TRIPOS>MOLECULE
naphthalen-2-ol
   19    20     1     0     0
SMALL
No Charge or Current Charge


@<TRIPOS>ATOM
      1 C1         -0.4970   -2.0340    0.4940 ca        1 MOL     -0.137400
      2 C2          0.3500   -1.0280    0.0390 ca        1 MOL     -0.117400
      3 C3          1.6480   -1.3370   -0.3660 ca        1 MOL     -0.126000
      4 C4          2.1170   -2.6600   -0.3220 ca        1 MOL     -0.003200
      5 C5          3.4210   -2.9900   -0.7270 ca        1 MOL     -0.158100
      6 C6          3.8690   -4.3100   -0.6760 ca        1 MOL      0.120200
      7 C7          3.0230   -5.3170   -0.2210 ca        1 MOL     -0.194200
      8 C8          1.7240   -5.0070    0.1850 ca        1 MOL     -0.079600
      9 C9          1.2560   -3.6840    0.1400 ca        1 MOL     -0.067300
     10 C10        -0.0480   -3.3540    0.5450 ca        1 MOL     -0.107200
     11 O1          5.1360   -4.6140   -1.0710 oh        1 MOL     -0.498300
     12 H1         -1.5070   -1.7920    0.8090 ha        1 MOL      0.131900
     13 H2          0.0000    0.0000    0.0000 ha        1 MOL      0.133200
     14 H3          2.2920   -0.5340   -0.7190 ha        1 MOL      0.134400
     15 H4          4.0960   -2.2140   -1.0850 ha        1 MOL      0.151200
     16 H5          3.3670   -6.3470   -0.1800 ha        1 MOL      0.133400
     17 H6          1.0800   -5.8100    0.5360 ha        1 MOL      0.134700
     18 H7         -0.7260   -4.1260    0.9030 ha        1 MOL      0.130900
     19 H8          5.2980   -5.5660   -0.9780 ho        1 MOL      0.418800
@<TRIPOS>BOND
     1    1   10 ar  
     2    1    2 ar  
     3    2    3 ar  
     4    3    4 ar  
     5    4    9 ar  
     6    4    5 ar  
     7    5    6 ar  
     8    6    7 ar  
     9    7    8 ar  
    10    8    9 ar  
    11    9   10 ar  
    12    6   11 1   
    13    1   12 1   
    14    2   13 1   
    15    3   14 1   
    16    5   15 1   
    17    7   16 1   
    18    8   17 1   
    19   10   18 1   
    20   11   19 1   
@<TRIPOS>SUBSTRUCTURE
     1 MOL         1 TEMP              0 ****  ****    0 ROOT
