@<TRIPOS>MOLECULE
1-ethyl-4-methyl-benzene
   21    21     1     0     0
SMALL
No Charge or Current Charge


@<TRIPOS>ATOM
      1 C1          1.2660   -2.2400   -2.2080 c3        1 MOL     -0.088900
      2 C2          1.9310   -1.0130   -1.6030 c3        1 MOL     -0.038000
      3 C3          1.8850   -1.0360   -0.1120 ca        1 MOL     -0.081500
      4 C4          2.9210   -1.6310    0.6080 ca        1 MOL     -0.124200
      5 C5          2.8780   -1.6520    2.0020 ca        1 MOL     -0.128700
      6 C6          1.8000   -1.0790    2.6760 ca        1 MOL     -0.080700
      7 C7          0.7640   -0.4840    1.9550 ca        1 MOL     -0.128700
      8 C8          0.8070   -0.4630    0.5610 ca        1 MOL     -0.124200
      9 C9          1.7530   -1.1040    4.1660 c3        1 MOL     -0.053100
     10 H1          1.3050   -2.2140   -3.3030 hc        1 MOL      0.035800
     11 H2          0.2150   -2.2880   -1.9070 hc        1 MOL      0.035800
     12 H3          1.7570   -3.1620   -1.8770 hc        1 MOL      0.035800
     13 H4          1.4390   -0.1050   -1.9730 hc        1 MOL      0.045300
     14 H5          2.9730   -0.9520   -1.9400 hc        1 MOL      0.045300
     15 H6          3.7650   -2.0800    0.0920 ha        1 MOL      0.130300
     16 H7          3.6890   -2.1180    2.5550 ha        1 MOL      0.130000
     17 H8         -0.0810   -0.0360    2.4720 ha        1 MOL      0.130000
     18 H9         -0.0050    0.0020    0.0080 ha        1 MOL      0.130300
     19 H10         2.2380   -0.2110    4.5790 hc        1 MOL      0.043200
     20 H11         0.7190   -1.1380    4.5320 hc        1 MOL      0.043200
     21 H12         2.2600   -1.9910    4.5660 hc        1 MOL      0.043200
@<TRIPOS>BOND
     1    1    2 1   
     2    2    3 1   
     3    3    8 ar  
     4    3    4 ar  
     5    4    5 ar  
     6    5    6 ar  
     7    6    7 ar  
     8    7    8 ar  
     9    6    9 1   
    10    1   10 1   
    11    1   11 1   
    12    1   12 1   
    13    2   13 1   
    14    2   14 1   
    15    4   15 1   
    16    5   16 1   
    17    7   17 1   
    18    8   18 1   
    19    9   19 1   
    20    9   20 1   
    21    9   21 1   
@<TRIPOS>SUBSTRUCTURE
     1 MOL         1 TEMP              0 ****  ****    0 ROOT
