@<TRIPOS>MOLECULE
(2S)-2-(3-benzoylphenyl)propanoic
   33    34     1     0     0
SMALL
No Charge or Current Charge


@<TRIPOS>ATOM
      1 C1          1.9220    0.4070   -2.1730 c3        1 MOL     -0.087500
      2 C2          1.9310   -1.0140   -1.6030 c3        1 MOL     -0.056600
      3 H1          2.8730   -1.4890   -1.9080 hc        1 MOL      0.088900
      4 C3          1.8850   -1.0360   -0.1120 ca        1 MOL     -0.089300
      5 C4          2.9210   -1.6310    0.6080 ca        1 MOL     -0.093300
      6 C5          2.8780   -1.6520    2.0020 ca        1 MOL     -0.133500
      7 C6          1.8000   -1.0790    2.6760 ca        1 MOL     -0.096600
      8 C7          0.7640   -0.4840    1.9550 ca        1 MOL     -0.152000
      9 C8          0.8070   -0.4630    0.5610 ca        1 MOL     -0.074400
     10 C9         -0.3610    0.1120    2.6570 c         1 MOL      0.587500
     11 O1         -0.3290    1.3060    2.9900 o         1 MOL     -0.522000
     12 C10        -1.5890   -0.6640    3.0080 ca        1 MOL     -0.173200
     13 C11        -1.6860   -2.0110    2.6590 ca        1 MOL     -0.079800
     14 C12        -2.8330   -2.7350    2.9850 ca        1 MOL     -0.147000
     15 C13        -3.8820   -2.1120    3.6600 ca        1 MOL     -0.099400
     16 C14        -3.7860   -0.7650    4.0090 ca        1 MOL     -0.147000
     17 C15        -2.6390   -0.0410    3.6830 ca        1 MOL     -0.079800
     18 C16         0.8000   -1.8310   -2.2110 c         1 MOL      0.633400
     19 O2         -0.1120   -2.3530   -1.5830 o         1 MOL     -0.534500
     20 O3          0.9080   -1.9290   -3.5620 oh        1 MOL     -0.613500
     21 H2          1.0070    0.9490   -1.9090 hc        1 MOL      0.051200
     22 H3          2.7790    0.9850   -1.8100 hc        1 MOL      0.051200
     23 H4          1.9730    0.3880   -3.2680 hc        1 MOL      0.051200
     24 H5          3.7650   -2.0800    0.0910 ha        1 MOL      0.138500
     25 H6          3.6850   -2.1150    2.5630 ha        1 MOL      0.138300
     26 H7          1.7760   -1.1020    3.7620 ha        1 MOL      0.141200
     27 H8         -0.0010   -0.0010   -0.0030 ha        1 MOL      0.145000
     28 H9         -0.8740   -2.5060    2.1320 ha        1 MOL      0.149300
     29 H10        -2.9080   -3.7840    2.7130 ha        1 MOL      0.137400
     30 H11        -4.7760   -2.6760    3.9140 ha        1 MOL      0.135100
     31 H12        -4.6040   -0.2810    4.5340 ha        1 MOL      0.137400
     32 H13        -2.5740    1.0080    3.9600 ha        1 MOL      0.149300
     33 H14         1.6800   -1.4700   -3.9570 ho        1 MOL      0.444300
@<TRIPOS>BOND
     1    1    2 1   
     2    2    3 1   
     3    2    4 1   
     4    4    9 ar  
     5    4    5 ar  
     6    5    6 ar  
     7    6    7 ar  
     8    7    8 ar  
     9    8    9 ar  
    10    8   10 1   
    11   10   11 2   
    12   10   12 1   
    13   12   17 ar  
    14   12   13 ar  
    15   13   14 ar  
    16   14   15 ar  
    17   15   16 ar  
    18   16   17 ar  
    19    2   18 1   
    20   18   19 2   
    21   18   20 1   
    22    1   21 1   
    23    1   22 1   
    24    1   23 1   
    25    5   24 1   
    26    6   25 1   
    27    7   26 1   
    28    9   27 1   
    29   13   28 1   
    30   14   29 1   
    31   15   30 1   
    32   16   31 1   
    33   17   32 1   
    34   20   33 1   
@<TRIPOS>SUBSTRUCTURE
     1 MOL         1 TEMP              0 ****  ****    0 ROOT
