@<TRIPOS>MOLECULE
methanol
    6     5     1     0     0
SMALL
No Charge or Current Charge


@<TRIPOS>ATOM
      1 C1          0.2830    0.7680    0.7240 c3        1 MOL      0.116600
      2 O1         -0.3110    2.0010    0.3620 oh        1 MOL     -0.598500
      3 H1         -0.0650    0.4720    1.7160 h1        1 MOL      0.028500
      4 H2          1.3710    0.8740    0.7240 h1        1 MOL      0.028500
      5 H3         -0.0070    0.0070   -0.0040 h1        1 MOL      0.028500
      6 H4          0.0220    2.2300   -0.5220 ho        1 MOL      0.396500
@<TRIPOS>BOND
     1    1    2 1   
     2    1    3 1   
     3    1    4 1   
     4    1    5 1   
     5    2    6 1   
@<TRIPOS>SUBSTRUCTURE
     1 MOL         1 TEMP              0 ****  ****    0 ROOT
