@<TRIPOS>MOLECULE
3,3-dimethylbutan-2-one
   19    18     1     0     0
SMALL
No Charge or Current Charge


@<TRIPOS>ATOM
      1 C1         -0.6290   -0.3790   -0.5370 c3        1 MOL     -0.197200
      2 C2         -1.9540   -0.8990   -0.0330 c         1 MOL      0.569200
      3 O1         -2.8920   -1.0440   -0.8210 o         1 MOL     -0.534300
      4 C3         -2.0980   -1.2120    1.4690 c3        1 MOL     -0.148600
      5 C4         -1.8400    0.0710    2.2690 c3        1 MOL     -0.083900
      6 C5         -1.1120   -2.3070    1.8940 c3        1 MOL     -0.083900
      7 C6         -3.5280   -1.7020    1.7550 c3        1 MOL     -0.083900
      8 H1         -0.6190    0.7130   -0.4690 hc        1 MOL      0.063300
      9 H2          0.1900   -0.7630    0.0740 hc        1 MOL      0.063300
     10 H3         -0.4900   -0.6630   -1.5820 hc        1 MOL      0.063300
     11 H4         -1.9310   -0.0990    3.3470 hc        1 MOL      0.041400
     12 H5         -0.8300    0.4550    2.0850 hc        1 MOL      0.041400
     13 H6         -2.5540    0.8580    1.9980 hc        1 MOL      0.041400
     14 H7         -1.2010   -2.5420    2.9610 hc        1 MOL      0.041400
     15 H8         -0.0760   -1.9980    1.7110 hc        1 MOL      0.041400
     16 H9         -1.2890   -3.2370    1.3420 hc        1 MOL      0.041400
     17 H10        -3.6610   -1.9330    2.8180 hc        1 MOL      0.041400
     18 H11        -3.7580   -2.6140    1.1910 hc        1 MOL      0.041400
     19 H12        -4.2710   -0.9460    1.4800 hc        1 MOL      0.041400
@<TRIPOS>BOND
     1    1    2 1   
     2    2    3 2   
     3    2    4 1   
     4    4    5 1   
     5    4    6 1   
     6    4    7 1   
     7    1    8 1   
     8    1    9 1   
     9    1   10 1   
    10    5   11 1   
    11    5   12 1   
    12    5   13 1   
    13    6   14 1   
    14    6   15 1   
    15    6   16 1   
    16    7   17 1   
    17    7   18 1   
    18    7   19 1   
@<TRIPOS>SUBSTRUCTURE
     1 MOL         1 TEMP              0 ****  ****    0 ROOT
