@<TRIPOS>MOLECULE
methanesulfonyl
    8     7     1     0     0
SMALL
No Charge or Current Charge


@<TRIPOS>ATOM
      1 C1          0.7070   -0.5800    0.5950 c3        1 MOL     -0.385700
      2 S1          2.3350   -0.0480    0.1960 s6        1 MOL      1.352700
      3 O1          3.0010    0.3940    1.4090 o         1 MOL     -0.581100
      4 O2          2.2830    0.7930   -0.9870 o         1 MOL     -0.581100
      5 Cl1         3.3750   -1.7140   -0.3940 cl        1 MOL     -0.222900
      6 H1          0.2180   -0.9080   -0.3230 h1        1 MOL      0.139400
      7 H2          0.7790   -1.4040    1.3060 h1        1 MOL      0.139400
      8 H3          0.1690    0.2610    1.0360 h1        1 MOL      0.139400
@<TRIPOS>BOND
     1    1    2 1   
     2    2    3 2   
     3    2    4 2   
     4    2    5 1   
     5    1    6 1   
     6    1    7 1   
     7    1    8 1   
@<TRIPOS>SUBSTRUCTURE
     1 MOL         1 TEMP              0 ****  ****    0 ROOT
