@<TRIPOS>MOLECULE
methyl
   20    19     1     0     0
SMALL
No Charge or Current Charge


@<TRIPOS>ATOM
      1 C1         -0.5100    0.9070    0.3410 c3        1 MOL     -0.092200
      2 C2         -0.5740    0.9570    1.8590 c3        1 MOL     -0.085300
      3 C3          0.8240    0.9590    2.4780 c3        1 MOL     -0.075400
      4 C4          0.7560    1.0090    4.0030 c3        1 MOL     -0.127200
      5 C5          2.1310    1.0110    4.6320 c         1 MOL      0.631700
      6 O1          3.1880    0.9770    4.0170 o         1 MOL     -0.542700
      7 O2          1.9960    1.0550    5.9900 os        1 MOL     -0.444900
      8 C6          3.2200    1.0610    6.7320 c3        1 MOL      0.128100
      9 H1         -1.5140    0.9070   -0.0940 hc        1 MOL      0.034500
     10 H2          0.0360    1.7680   -0.0570 hc        1 MOL      0.034500
     11 H3          0.0030   -0.0020    0.0130 hc        1 MOL      0.034500
     12 H4         -1.1190    1.8570    2.1670 hc        1 MOL      0.044300
     13 H5         -1.1410    0.0930    2.2230 hc        1 MOL      0.044300
     14 H6          1.3930    1.8200    2.1050 hc        1 MOL      0.055000
     15 H7          1.3690    0.0610    2.1620 hc        1 MOL      0.055000
     16 H8          0.2110    0.1350    4.3780 hc        1 MOL      0.077700
     17 H9          0.2340    1.9190    4.3200 hc        1 MOL      0.077700
     18 H10         2.9850    1.0970    7.7940 h1        1 MOL      0.050100
     19 H11         3.8040    1.9290    6.4360 h1        1 MOL      0.050100
     20 H12         3.7620    0.1470    6.5000 h1        1 MOL      0.050100
@<TRIPOS>BOND
     1    1    2 1   
     2    2    3 1   
     3    3    4 1   
     4    4    5 1   
     5    5    6 2   
     6    5    7 1   
     7    7    8 1   
     8    1    9 1   
     9    1   10 1   
    10    1   11 1   
    11    2   12 1   
    12    2   13 1   
    13    3   14 1   
    14    3   15 1   
    15    4   16 1   
    16    4   17 1   
    17    8   18 1   
    18    8   19 1   
    19    8   20 1   
@<TRIPOS>SUBSTRUCTURE
     1 MOL         1 TEMP              0 ****  ****    0 ROOT
