@<TRIPOS>MOLECULE
2-methylprop-1-ene
   12    11     1     0     0
SMALL
No Charge or Current Charge


@<TRIPOS>ATOM
      1 C1          1.7630   -2.7440    1.2190 c3        1 MOL     -0.063200
      2 C2          1.1100   -1.7850    0.2680 c2        1 MOL     -0.110200
      3 C3          0.4690   -0.6870    0.6960 c2        1 MOL     -0.232000
      4 C4          1.2140   -2.1250   -1.1890 c3        1 MOL     -0.063200
      5 H1          1.0540   -3.5210    1.5220 hc        1 MOL      0.041000
      6 H2          2.6230   -3.2250    0.7420 hc        1 MOL      0.041000
      7 H3          2.1200   -2.2470    2.1270 hc        1 MOL      0.041000
      8 H4         -0.0000   -0.0000    0.0000 ha        1 MOL      0.111200
      9 H5          0.3990   -0.4500    1.7520 ha        1 MOL      0.111200
     10 H6          0.3660   -2.7450   -1.4970 hc        1 MOL      0.041000
     11 H7          1.2140   -1.2110   -1.7930 hc        1 MOL      0.041000
     12 H8          2.1320   -2.6760   -1.4200 hc        1 MOL      0.041000
@<TRIPOS>BOND
     1    1    2 1   
     2    2    3 2   
     3    2    4 1   
     4    1    5 1   
     5    1    6 1   
     6    1    7 1   
     7    3    8 1   
     8    3    9 1   
     9    4   10 1   
    10    4   11 1   
    11    4   12 1   
@<TRIPOS>SUBSTRUCTURE
     1 MOL         1 TEMP              0 ****  ****    0 ROOT
