@<TRIPOS>MOLECULE
phenyl
   15    15     1     0     0
SMALL
No Charge or Current Charge


@<TRIPOS>ATOM
      1 C1          1.8850   -1.0360   -0.1120 ca        1 MOL     -0.129400
      2 C2          2.9210   -1.6310    0.6080 ca        1 MOL     -0.118900
      3 C3          2.8780   -1.6520    2.0020 ca        1 MOL     -0.125800
      4 C4          1.8000   -1.0790    2.6760 ca        1 MOL      0.096200
      5 C5          0.7640   -0.4840    1.9550 ca        1 MOL     -0.125800
      6 C6          0.8070   -0.4630    0.5610 ca        1 MOL     -0.118900
      7 O1          1.7590   -1.0980    4.0360 os        1 MOL     -0.380200
      8 C7          2.3600    0.0150    4.6330 c         1 MOL      0.633900
      9 O2          2.8920    0.9560    4.0660 o         1 MOL     -0.510400
     10 H1          1.9180   -1.0210   -1.1980 ha        1 MOL      0.134800
     11 H2          3.7600   -2.0770    0.0830 ha        1 MOL      0.136100
     12 H3          3.6890   -2.1150    2.5580 ha        1 MOL      0.144900
     13 H4         -0.0790   -0.0350    2.4740 ha        1 MOL      0.144900
     14 H5         -0.0000    0.0000    0.0000 ha        1 MOL      0.136100
     15 H6          2.2800   -0.0850    5.7270 h5        1 MOL      0.082600
@<TRIPOS>BOND
     1    1    6 ar  
     2    1    2 ar  
     3    2    3 ar  
     4    3    4 ar  
     5    4    5 ar  
     6    5    6 ar  
     7    4    7 1   
     8    7    8 1   
     9    8    9 2   
    10    1   10 1   
    11    2   11 1   
    12    3   12 1   
    13    5   13 1   
    14    6   14 1   
    15    8   15 1   
@<TRIPOS>SUBSTRUCTURE
     1 MOL         1 TEMP              0 ****  ****    0 ROOT
