@<TRIPOS>MOLECULE
N,N-dimethylaniline
   20    20     1     0     0
SMALL
No Charge or Current Charge


@<TRIPOS>ATOM
      1 C1          3.2010   -0.9780   -2.2320 c3        1 MOL      0.221300
      2 N1          1.9290   -1.0140   -1.5220 nh        1 MOL     -0.725300
      3 C2          0.7040   -1.0400   -2.3110 c3        1 MOL      0.221300
      4 C3          1.8850   -1.0360   -0.1120 ca        1 MOL      0.197500
      5 C4          2.9210   -1.6310    0.6080 ca        1 MOL     -0.193700
      6 C5          2.8780   -1.6520    2.0020 ca        1 MOL     -0.095600
      7 C6          1.8000   -1.0790    2.6760 ca        1 MOL     -0.174500
      8 C7          0.7640   -0.4840    1.9550 ca        1 MOL     -0.095600
      9 C8          0.8070   -0.4630    0.5610 ca        1 MOL     -0.193700
     10 H1          4.0290   -0.9610   -1.5180 h1        1 MOL      0.032100
     11 H2          3.2590   -0.0840   -2.8590 h1        1 MOL      0.032100
     12 H3          3.3040   -1.8600   -2.8690 h1        1 MOL      0.032100
     13 H4         -0.1500   -1.0660   -1.6400 h1        1 MOL      0.032100
     14 H5          0.7030   -1.9260   -2.9410 h1        1 MOL      0.032100
     15 H6          0.6580   -0.1490   -2.9310 h1        1 MOL      0.032100
     16 H7          3.7670   -2.0800    0.0930 ha        1 MOL      0.130500
     17 H8          3.6850   -2.1140    2.5640 ha        1 MOL      0.127200
     18 H9          1.7660   -1.0950    3.7610 ha        1 MOL      0.130000
     19 H10        -0.0750   -0.0370    2.4790 ha        1 MOL      0.127200
     20 H11        -0.0060    0.0030    0.0090 ha        1 MOL      0.130500
@<TRIPOS>BOND
     1    1    2 1   
     2    2    3 1   
     3    2    4 1   
     4    4    9 ar  
     5    4    5 ar  
     6    5    6 ar  
     7    6    7 ar  
     8    7    8 ar  
     9    8    9 ar  
    10    1   10 1   
    11    1   11 1   
    12    1   12 1   
    13    3   13 1   
    14    3   14 1   
    15    3   15 1   
    16    5   16 1   
    17    6   17 1   
    18    7   18 1   
    19    8   19 1   
    20    9   20 1   
@<TRIPOS>SUBSTRUCTURE
     1 MOL         1 TEMP              0 ****  ****    0 ROOT
