@<TRIPOS>MOLECULE
diethoxy-(4-nitrophenoxy)-thioxo-$l^{5}-phosphane
   32    32     1     0     0
SMALL
No Charge or Current Charge


@<TRIPOS>ATOM
      1 C1          1.6470    1.0970   -0.1440 c3        1 MOL     -0.122300
      2 C2          0.4360    0.4920   -0.8210 c3        1 MOL      0.157600
      3 O1          0.8700   -0.4090   -1.8260 os        1 MOL     -0.546600
      4 P1         -0.2260   -1.2120   -2.7240 p5        1 MOL      1.230100
      5 S1         -1.4490   -2.3690   -1.7410 s         1 MOL     -0.557600
      6 O2          0.7380   -1.9140   -3.8320 os        1 MOL     -0.546600
      7 C3          1.7520   -2.8120   -3.4150 c3        1 MOL      0.157600
      8 C4          2.4970   -3.3180   -4.6330 c3        1 MOL     -0.122300
      9 O3         -0.8840    0.0040   -3.5710 os        1 MOL     -0.465300
     10 C5         -1.8820   -0.1000   -4.5020 ca        1 MOL      0.170300
     11 C6         -2.0130   -1.2650   -5.2570 ca        1 MOL     -0.140000
     12 C7         -3.0300   -1.3710   -6.2060 ca        1 MOL     -0.051400
     13 C8         -3.9160   -0.3110   -6.3990 ca        1 MOL     -0.174700
     14 C9         -3.7850    0.8540   -5.6440 ca        1 MOL     -0.051400
     15 C10        -2.7680    0.9600   -4.6960 ca        1 MOL     -0.140000
     16 N1         -4.9510   -0.4190   -7.3650 no        1 MOL      0.314900
     17 O4         -5.7380    0.5450   -7.5240 o         1 MOL     -0.202300
     18 O5         -5.0510   -1.4760   -8.0340 o         1 MOL     -0.202300
     19 H1          1.3460    1.7980    0.6390 hc        1 MOL      0.056800
     20 H2          2.2700    0.3150    0.3020 hc        1 MOL      0.056800
     21 H3          2.2720    1.6250   -0.8710 hc        1 MOL      0.056800
     22 H4         -0.1730    1.2720   -1.2870 h1        1 MOL      0.065400
     23 H5         -0.1760   -0.0560   -0.0980 h1        1 MOL      0.065400
     24 H6          2.4360   -2.2860   -2.7410 h1        1 MOL      0.065400
     25 H7          1.2900   -3.6440   -2.8760 h1        1 MOL      0.065400
     26 H8          3.2890   -4.0150   -4.3460 hc        1 MOL      0.056800
     27 H9          1.8110   -3.8250   -5.3200 hc        1 MOL      0.056800
     28 H10         2.9420   -2.4840   -5.1860 hc        1 MOL      0.056800
     29 H11        -1.3260   -2.0940   -5.1110 ha        1 MOL      0.165700
     30 H12        -3.1210   -2.2850   -6.7880 ha        1 MOL      0.179200
     31 H13        -4.4690    1.6870   -5.7850 ha        1 MOL      0.179200
     32 H14        -2.6710    1.8700   -4.1100 ha        1 MOL      0.165700
@<TRIPOS>BOND
     1    1    2 1   
     2    2    3 1   
     3    3    4 1   
     4    4    5 2   
     5    4    6 1   
     6    6    7 1   
     7    7    8 1   
     8    4    9 1   
     9    9   10 1   
    10   10   15 ar  
    11   10   11 ar  
    12   11   12 ar  
    13   12   13 ar  
    14   13   14 ar  
    15   14   15 ar  
    16   13   16 1   
    17   16   17 1   
    18   16   18 1   
    19    1   19 1   
    20    1   20 1   
    21    1   21 1   
    22    2   22 1   
    23    2   23 1   
    24    7   24 1   
    25    7   25 1   
    26    8   26 1   
    27    8   27 1   
    28    8   28 1   
    29   11   29 1   
    30   12   30 1   
    31   14   31 1   
    32   15   32 1   
@<TRIPOS>SUBSTRUCTURE
     1 MOL         1 TEMP              0 ****  ****    0 ROOT
