@<TRIPOS>MOLECULE
1,4-dichloro-2-phenyl-benzene
   22    23     1     0     0
SMALL
No Charge or Current Charge


@<TRIPOS>ATOM
      1 C1          1.8850   -1.0360   -0.1120 ca        1 MOL     -0.122700
      2 C2          2.9210   -1.6310    0.6080 ca        1 MOL     -0.131300
      3 C3          2.8780   -1.6520    2.0020 ca        1 MOL     -0.106000
      4 C4          1.8000   -1.0790    2.6760 cp        1 MOL     -0.053500
      5 C5          0.7640   -0.4840    1.9550 ca        1 MOL     -0.106000
      6 C6          0.8070   -0.4630    0.5610 ca        1 MOL     -0.131300
      7 C7          1.7550   -1.1010    4.1220 cp        1 MOL     -0.025100
      8 C8          1.1410   -2.1870    4.7450 ca        1 MOL     -0.106300
      9 C9          1.0760   -2.2460    6.1380 ca        1 MOL      0.013800
     10 C10         1.6260   -1.2200    6.9060 ca        1 MOL     -0.115800
     11 C11         2.2400   -0.1340    6.2820 ca        1 MOL     -0.120100
     12 C12         2.3040   -0.0740    4.8900 ca        1 MOL      0.027200
     13 Cl1         3.0780    1.2960    4.1700 cl        1 MOL     -0.077600
     14 Cl2         0.3190   -3.5860    6.9090 cl        1 MOL     -0.086000
     15 H1          1.9170   -1.0210   -1.1980 ha        1 MOL      0.131500
     16 H2          3.7600   -2.0790    0.0840 ha        1 MOL      0.134200
     17 H3          3.6930   -2.1200    2.5500 ha        1 MOL      0.139100
     18 H4         -0.0840   -0.0330    2.4660 ha        1 MOL      0.139100
     19 H5         -0.0010   -0.0020    0.0000 ha        1 MOL      0.134200
     20 H6          0.7110   -2.9890    4.1490 ha        1 MOL      0.158300
     21 H7          1.5830   -1.2530    7.9920 ha        1 MOL      0.151700
     22 H8          2.6630    0.6570    6.8960 ha        1 MOL      0.152500
@<TRIPOS>BOND
     1    1    6 ar  
     2    1    2 ar  
     3    2    3 ar  
     4    3    4 ar  
     5    4    5 ar  
     6    5    6 ar  
     7    4    7 1   
     8    7   12 ar  
     9    7    8 ar  
    10    8    9 ar  
    11    9   10 ar  
    12   10   11 ar  
    13   11   12 ar  
    14   12   13 1   
    15    9   14 1   
    16    1   15 1   
    17    2   16 1   
    18    3   17 1   
    19    5   18 1   
    20    6   19 1   
    21    8   20 1   
    22   10   21 1   
    23   11   22 1   
@<TRIPOS>SUBSTRUCTURE
     1 MOL         1 TEMP              0 ****  ****    0 ROOT
