@<TRIPOS>MOLECULE
5-bromo-6-methyl-3-[(1S)-1-methylpropyl]-1H-pyrimidine-2,4-dione
   27    27     1     0     0
SMALL
No Charge or Current Charge


@<TRIPOS>ATOM
      1 C1         -6.2540   -3.0930   -4.7230 c3        1 MOL     -0.092000
      2 C2         -5.0420   -2.9110   -3.8180 c3        1 MOL     -0.101500
      3 C3         -5.0560   -1.5710   -3.0720 c3        1 MOL      0.110600
      4 H1         -5.0600   -0.7480   -3.7960 h1        1 MOL      0.089000
      5 C4         -3.8260   -1.4340   -2.1800 c3        1 MOL     -0.109500
      6 N1         -6.2610   -1.4220   -2.2640 n         1 MOL     -0.478100
      7 C5         -6.5160   -2.3600   -1.2530 c         1 MOL      0.730100
      8 O1         -5.7840   -3.3160   -0.9970 o         1 MOL     -0.590100
      9 C6         -7.7740   -2.1370   -0.4670 cc        1 MOL     -0.251300
     10 C7         -8.5620   -1.0900   -0.7650 cd        1 MOL      0.138800
     11 N2         -8.2260   -0.2260   -1.7800 n         1 MOL     -0.466900
     12 C8         -7.0960   -0.3300   -2.5690 c         1 MOL      0.807700
     13 O2         -6.8630    0.4860   -3.4640 o         1 MOL     -0.639700
     14 C9         -9.8500   -0.7300   -0.0750 c3        1 MOL     -0.090700
     15 Br1        -8.1290   -3.3790    0.8920 br        1 MOL     -0.014800
     16 H2         -6.2230   -4.0540   -5.2450 hc        1 MOL      0.035200
     17 H3         -7.1730   -3.0630   -4.1300 hc        1 MOL      0.035200
     18 H4         -6.3080   -2.2950   -5.4710 hc        1 MOL      0.035200
     19 H5         -5.0260   -3.7330   -3.0930 hc        1 MOL      0.061600
     20 H6         -4.1310   -2.9980   -4.4230 hc        1 MOL      0.061600
     21 H7         -3.8340   -0.4780   -1.6450 hc        1 MOL      0.051000
     22 H8         -3.7810   -2.2400   -1.4390 hc        1 MOL      0.051000
     23 H9         -2.9080   -1.4810   -2.7750 hc        1 MOL      0.051000
     24 H10        -8.8570    0.5490   -1.9650 hn        1 MOL      0.353900
     25 H11        -9.6370   -0.0640    0.7560 hc        1 MOL      0.074200
     26 H12       -10.3250   -1.6360    0.2910 hc        1 MOL      0.074200
     27 H13       -10.5100   -0.2370   -0.7830 hc        1 MOL      0.074200
@<TRIPOS>BOND
     1    1    2 1   
     2    2    3 1   
     3    3    4 1   
     4    3    5 1   
     5    3    6 1   
     6    6   12 1   
     7    6    7 1   
     8    7    8 2   
     9    7    9 1   
    10    9   10 2   
    11   10   11 1   
    12   11   12 1   
    13   12   13 2   
    14   10   14 1   
    15    9   15 1   
    16    1   16 1   
    17    1   17 1   
    18    1   18 1   
    19    2   19 1   
    20    2   20 1   
    21    5   21 1   
    22    5   22 1   
    23    5   23 1   
    24   11   24 1   
    25   14   25 1   
    26   14   26 1   
    27   14   27 1   
@<TRIPOS>SUBSTRUCTURE
     1 MOL         1 TEMP              0 ****  ****    0 ROOT
