@<TRIPOS>MOLECULE
trimethyl
   17    16     1     0     0
SMALL
No Charge or Current Charge


@<TRIPOS>ATOM
      1 C1          1.0020   -0.2850   -0.3280 c3        1 MOL      0.149600
      2 O1          1.0800   -0.1390   -1.7360 os        1 MOL     -0.566200
      3 P1          2.4480   -0.5830   -2.4830 p5        1 MOL      1.599700
      4 O2          2.8150   -2.0290   -2.3080 o         1 MOL     -0.784000
      5 O3          2.1850   -0.1340   -4.0170 os        1 MOL     -0.566200
      6 C2          3.2020   -0.3770   -4.9750 c3        1 MOL      0.149600
      7 O4          3.5620    0.4610   -1.9410 os        1 MOL     -0.566200
      8 C3          3.4020    1.8520   -2.1600 c3        1 MOL      0.149600
      9 H1          0.0240    0.0560    0.0210 h1        1 MOL      0.048300
     10 H2          1.7940    0.3010    0.1450 h1        1 MOL      0.048300
     11 H3          1.1300   -1.3400   -0.0730 h1        1 MOL      0.048300
     12 H4          2.8730   -0.0180   -5.9530 h1        1 MOL      0.048300
     13 H5          3.4130   -1.4480   -5.0180 h1        1 MOL      0.048300
     14 H6          4.1050    0.1600   -4.6760 h1        1 MOL      0.048300
     15 H7          4.2480    2.3890   -1.7260 h1        1 MOL      0.048300
     16 H8          2.4680    2.1870   -1.7030 h1        1 MOL      0.048300
     17 H9          3.3670    2.0390   -3.2360 h1        1 MOL      0.048300
@<TRIPOS>BOND
     1    1    2 1   
     2    2    3 1   
     3    3    4 2   
     4    3    5 1   
     5    5    6 1   
     6    3    7 1   
     7    7    8 1   
     8    1    9 1   
     9    1   10 1   
    10    1   11 1   
    11    6   12 1   
    12    6   13 1   
    13    6   14 1   
    14    8   15 1   
    15    8   16 1   
    16    8   17 1   
@<TRIPOS>SUBSTRUCTURE
     1 MOL         1 TEMP              0 ****  ****    0 ROOT
