@<TRIPOS>MOLECULE
2-isopropylsulfanylpropane
   21    20     1     0     0
SMALL
No Charge or Current Charge


@<TRIPOS>ATOM
      1 C1          0.8900    0.3280    2.7310 c3        1 MOL     -0.085900
      2 C2          1.2990    1.0060    1.4280 c3        1 MOL      0.022200
      3 C3          0.9730    0.1340    0.2220 c3        1 MOL     -0.085900
      4 S1          0.4460    2.6110    1.2760 ss        1 MOL     -0.340600
      5 C4          1.5250    3.5750    2.3570 c3        1 MOL      0.022200
      6 C5          2.7980    3.9850    1.6120 c3        1 MOL     -0.085900
      7 C6          0.7860    4.8070    2.8850 c3        1 MOL     -0.085900
      8 H1          1.1320    0.9700    3.5860 hc        1 MOL      0.043100
      9 H2         -0.1890    0.1400    2.7600 hc        1 MOL      0.043100
     10 H3          1.4110   -0.6250    2.8770 hc        1 MOL      0.043100
     11 H4          2.3760    1.2040    1.4480 h1        1 MOL      0.061500
     12 H5          1.2740    0.6370   -0.7040 hc        1 MOL      0.043100
     13 H6         -0.1030   -0.0630    0.1510 hc        1 MOL      0.043100
     14 H7          1.4970   -0.8280    0.2590 hc        1 MOL      0.043100
     15 H8          1.8110    2.9470    3.2150 h1        1 MOL      0.061500
     16 H9          3.4600    4.5700    2.2600 hc        1 MOL      0.043100
     17 H10         3.3600    3.1040    1.2820 hc        1 MOL      0.043100
     18 H11         2.5710    4.5980    0.7330 hc        1 MOL      0.043100
     19 H12         1.4320    5.3990    3.5430 hc        1 MOL      0.043100
     20 H13        -0.0950    4.5170    3.4680 hc        1 MOL      0.043100
     21 H14         0.4590    5.4610    2.0690 hc        1 MOL      0.043100
@<TRIPOS>BOND
     1    1    2 1   
     2    2    3 1   
     3    2    4 1   
     4    4    5 1   
     5    5    6 1   
     6    5    7 1   
     7    1    8 1   
     8    1    9 1   
     9    1   10 1   
    10    2   11 1   
    11    3   12 1   
    12    3   13 1   
    13    3   14 1   
    14    5   15 1   
    15    6   16 1   
    16    6   17 1   
    17    6   18 1   
    18    7   19 1   
    19    7   20 1   
    20    7   21 1   
@<TRIPOS>SUBSTRUCTURE
     1 MOL         1 TEMP              0 ****  ****    0 ROOT
