@<TRIPOS>MOLECULE
naphthalene
   18    19     1     0     0
SMALL
No Charge or Current Charge


@<TRIPOS>ATOM
      1 C1         -0.4970   -2.0340    0.4940 ca        1 MOL     -0.127700
      2 C2          0.3500   -1.0280    0.0390 ca        1 MOL     -0.127600
      3 C3          1.6480   -1.3370   -0.3660 ca        1 MOL     -0.117700
      4 C4          2.1170   -2.6600   -0.3220 ca        1 MOL     -0.036900
      5 C5          3.4210   -2.9900   -0.7270 ca        1 MOL     -0.117700
      6 C6          3.8690   -4.3100   -0.6760 ca        1 MOL     -0.127600
      7 C7          3.0230   -5.3170   -0.2210 ca        1 MOL     -0.127600
      8 C8          1.7240   -5.0070    0.1850 ca        1 MOL     -0.117700
      9 C9          1.2560   -3.6840    0.1400 ca        1 MOL     -0.036900
     10 C10        -0.0480   -3.3540    0.5450 ca        1 MOL     -0.117700
     11 H1         -1.5080   -1.7930    0.8090 ha        1 MOL      0.131800
     12 H2         -0.0000   -0.0000    0.0000 ha        1 MOL      0.131800
     13 H3          2.2930   -0.5340   -0.7180 ha        1 MOL      0.131900
     14 H4          4.0990   -2.2190   -1.0860 ha        1 MOL      0.131900
     15 H5          4.8800   -4.5520   -0.9920 ha        1 MOL      0.131800
     16 H6          3.3730   -6.3450   -0.1820 ha        1 MOL      0.131800
     17 H7          1.0800   -5.8100    0.5370 ha        1 MOL      0.131900
     18 H8         -0.7270   -4.1250    0.9030 ha        1 MOL      0.131900
@<TRIPOS>BOND
     1    1   10 ar  
     2    1    2 ar  
     3    2    3 ar  
     4    3    4 ar  
     5    4    9 ar  
     6    4    5 ar  
     7    5    6 ar  
     8    6    7 ar  
     9    7    8 ar  
    10    8    9 ar  
    11    9   10 ar  
    12    1   11 1   
    13    2   12 1   
    14    3   13 1   
    15    5   14 1   
    16    6   15 1   
    17    7   16 1   
    18    8   17 1   
    19   10   18 1   
@<TRIPOS>SUBSTRUCTURE
     1 MOL         1 TEMP              0 ****  ****    0 ROOT
