@<TRIPOS>MOLECULE
nonan-5-one
   28    27     1     0     0
SMALL
No Charge or Current Charge


@<TRIPOS>ATOM
      1 C1         -1.6200    1.5630    4.2480 c3        1 MOL     -0.091700
      2 C2         -1.7870    1.6210    2.7380 c3        1 MOL     -0.079200
      3 C3         -0.9430    0.5560    2.0390 c3        1 MOL     -0.075800
      4 C4         -1.1130    0.6190    0.5230 c3        1 MOL     -0.181500
      5 C5         -0.2840   -0.4300   -0.2020 c         1 MOL      0.563300
      6 O1          0.4350   -1.2270    0.3970 o         1 MOL     -0.527900
      7 C6         -0.4340   -0.4500   -1.7170 c3        1 MOL     -0.181500
      8 C7          0.4140   -1.5160   -2.4080 c3        1 MOL     -0.075800
      9 C8          0.2380   -1.5060   -3.9290 c3        1 MOL     -0.079200
     10 C9          1.0910   -2.5750   -4.5930 c3        1 MOL     -0.091700
     11 H1         -2.2330    2.3330    4.7270 hc        1 MOL      0.034700
     12 H2         -0.5770    1.7320    4.5340 hc        1 MOL      0.034700
     13 H3         -1.9310    0.5890    4.6390 hc        1 MOL      0.034700
     14 H4         -1.4990    2.6170    2.3820 hc        1 MOL      0.035700
     15 H5         -2.8450    1.4810    2.4870 hc        1 MOL      0.035700
     16 H6          0.1150    0.6950    2.2980 hc        1 MOL      0.054300
     17 H7         -1.2280   -0.4390    2.4030 hc        1 MOL      0.054300
     18 H8         -0.8060    1.6030    0.1550 hc        1 MOL      0.063100
     19 H9         -2.1640    0.4580    0.2590 hc        1 MOL      0.063100
     20 H10        -0.1810    0.5420   -2.1080 hc        1 MOL      0.063100
     21 H11        -1.4920   -0.6400   -1.9290 hc        1 MOL      0.063100
     22 H12         0.1140   -2.4990   -2.0250 hc        1 MOL      0.054300
     23 H13         1.4720   -1.3850   -2.1540 hc        1 MOL      0.054300
     24 H14        -0.8150   -1.6800   -4.1820 hc        1 MOL      0.035700
     25 H15         0.5110   -0.5280   -4.3390 hc        1 MOL      0.035700
     26 H16         0.9510   -2.5520   -5.6780 hc        1 MOL      0.034700
     27 H17         2.1540   -2.4150   -4.3840 hc        1 MOL      0.034700
     28 H18         0.8170   -3.5740   -4.2370 hc        1 MOL      0.034700
@<TRIPOS>BOND
     1    1    2 1   
     2    2    3 1   
     3    3    4 1   
     4    4    5 1   
     5    5    6 2   
     6    5    7 1   
     7    7    8 1   
     8    8    9 1   
     9    9   10 1   
    10    1   11 1   
    11    1   12 1   
    12    1   13 1   
    13    2   14 1   
    14    2   15 1   
    15    3   16 1   
    16    3   17 1   
    17    4   18 1   
    18    4   19 1   
    19    7   20 1   
    20    7   21 1   
    21    8   22 1   
    22    8   23 1   
    23    9   24 1   
    24    9   25 1   
    25   10   26 1   
    26   10   27 1   
    27   10   28 1   
@<TRIPOS>SUBSTRUCTURE
     1 MOL         1 TEMP              0 ****  ****    0 ROOT
