@<TRIPOS>MOLECULE
1-nitropentane
   19    18     1     0     0
SMALL
No Charge or Current Charge


@<TRIPOS>ATOM
      1 C1          0.0740   -0.6780    0.8570 c3        1 MOL     -0.094300
      2 C2          1.3440   -0.4150    1.6510 c3        1 MOL     -0.079900
      3 C3          2.5930   -0.6240    0.7950 c3        1 MOL     -0.078200
      4 C4          3.8690   -0.3580    1.5970 c3        1 MOL     -0.093100
      5 C5          5.1080   -0.5680    0.7380 c3        1 MOL     -0.077300
      6 N1          6.3020   -0.3030    1.5450 no        1 MOL      0.228900
      7 O1          6.8070   -1.2580    2.1670 o         1 MOL     -0.210200
      8 O2          6.7390    0.8640    1.5800 o         1 MOL     -0.210200
      9 H1         -0.8060   -0.5230    1.4880 hc        1 MOL      0.036400
     10 H2          0.0000   -0.0020   -0.0010 hc        1 MOL      0.036400
     11 H3          0.0500   -1.7080    0.4860 hc        1 MOL      0.036400
     12 H4          1.3710   -1.0860    2.5180 hc        1 MOL      0.044400
     13 H5          1.3220    0.6110    2.0340 hc        1 MOL      0.044400
     14 H6          2.5600    0.0450   -0.0740 hc        1 MOL      0.046300
     15 H7          2.6080   -1.6510    0.4110 hc        1 MOL      0.046300
     16 H8          3.8980   -1.0240    2.4690 hc        1 MOL      0.067500
     17 H9          3.8490    0.6680    1.9860 hc        1 MOL      0.067500
     18 H10         5.1350    0.1180   -0.1140 h1        1 MOL      0.094300
     19 H11         5.1810   -1.5980    0.3780 h1        1 MOL      0.094300
@<TRIPOS>BOND
     1    1    2 1   
     2    2    3 1   
     3    3    4 1   
     4    4    5 1   
     5    5    6 1   
     6    6    7 1   
     7    6    8 1   
     8    1    9 1   
     9    1   10 1   
    10    1   11 1   
    11    2   12 1   
    12    2   13 1   
    13    3   14 1   
    14    3   15 1   
    15    4   16 1   
    16    4   17 1   
    17    5   18 1   
    18    5   19 1   
@<TRIPOS>SUBSTRUCTURE
     1 MOL         1 TEMP              0 ****  ****    0 ROOT
