@<TRIPOS>MOLECULE
2-methylpyrazine
   13    13     1     0     0
SMALL
No Charge or Current Charge


@<TRIPOS>ATOM
      1 C1          0.0880    0.3940   -0.0550 c3        1 MOL     -0.147700
      2 C2         -0.3210   -1.0180    0.1820 ca        1 MOL      0.301200
      3 C3         -1.5570   -1.3070    0.7170 ca        1 MOL      0.277300
      4 N1         -1.9570   -2.5740    0.9450 nb        1 MOL     -0.625600
      5 C4         -1.0770   -3.5410    0.6190 ca        1 MOL      0.271500
      6 C5          0.1590   -3.2520    0.0830 ca        1 MOL      0.287800
      7 N2          0.5590   -1.9850   -0.1440 nb        1 MOL     -0.635900
      8 H1         -0.2080    0.7060   -1.0610 hc        1 MOL      0.057300
      9 H2         -0.3790    1.0640    0.6750 hc        1 MOL      0.057300
     10 H3          1.1720    0.5090    0.0470 hc        1 MOL      0.057300
     11 H4         -2.2690   -0.5350    0.9840 h4        1 MOL      0.033000
     12 H5         -1.3990   -4.5590    0.8020 h4        1 MOL      0.033600
     13 H6          0.8650   -4.0290   -0.1800 h4        1 MOL      0.033100
@<TRIPOS>BOND
     1    1    2 1   
     2    2    7 ar  
     3    2    3 ar  
     4    3    4 ar  
     5    4    5 ar  
     6    5    6 ar  
     7    6    7 ar  
     8    1    8 1   
     9    1    9 1   
    10    1   10 1   
    11    3   11 1   
    12    5   12 1   
    13    6   13 1   
@<TRIPOS>SUBSTRUCTURE
     1 MOL         1 TEMP              0 ****  ****    0 ROOT
