@<TRIPOS>MOLECULE
naphthalen-1-amine
   20    21     1     0     0
SMALL
No Charge or Current Charge


@<TRIPOS>ATOM
      1 C1         -0.4970   -2.0340    0.4940 ca        1 MOL     -0.121000
      2 C2          0.3500   -1.0280    0.0390 ca        1 MOL     -0.138700
      3 C3          1.6480   -1.3370   -0.3660 ca        1 MOL     -0.111300
      4 C4          2.1170   -2.6600   -0.3220 ca        1 MOL     -0.066400
      5 C5          1.2560   -3.6840    0.1400 ca        1 MOL     -0.005500
      6 C6         -0.0480   -3.3540    0.5450 ca        1 MOL     -0.124800
      7 C7          1.7240   -5.0070    0.1850 ca        1 MOL     -0.163900
      8 C8          3.0230   -5.3170   -0.2210 ca        1 MOL     -0.085200
      9 C9          3.8690   -4.3100   -0.6760 ca        1 MOL     -0.212200
     10 C10         3.4210   -2.9900   -0.7270 ca        1 MOL      0.153600
     11 N1          4.3230   -2.0050   -1.1970 nh        1 MOL     -0.818000
     12 H1         -1.5070   -1.7920    0.8100 ha        1 MOL      0.131400
     13 H2         -0.0000    0.0000    0.0000 ha        1 MOL      0.130800
     14 H3          2.2780   -0.5220   -0.7150 ha        1 MOL      0.125900
     15 H4         -0.7270   -4.1250    0.9030 ha        1 MOL      0.132900
     16 H5          1.0810   -5.8100    0.5370 ha        1 MOL      0.132500
     17 H6          3.3730   -6.3440   -0.1830 ha        1 MOL      0.129900
     18 H7          4.8790   -4.5650   -0.9890 ha        1 MOL      0.130600
     19 H8          4.0060   -1.0630   -1.2850 hn        1 MOL      0.389800
     20 H9          5.2230   -2.2900   -1.5180 hn        1 MOL      0.389800
@<TRIPOS>BOND
     1    1    6 ar  
     2    1    2 ar  
     3    2    3 ar  
     4    3    4 ar  
     5    4   10 ar  
     6    4    5 ar  
     7    5    6 ar  
     8    5    7 ar  
     9    7    8 ar  
    10    8    9 ar  
    11    9   10 ar  
    12   10   11 1   
    13    1   12 1   
    14    2   13 1   
    15    3   14 1   
    16    6   15 1   
    17    7   16 1   
    18    8   17 1   
    19    9   18 1   
    20   11   19 1   
    21   11   20 1   
@<TRIPOS>SUBSTRUCTURE
     1 MOL         1 TEMP              0 ****  ****    0 ROOT
