@<TRIPOS>MOLECULE
2,4-dimethylpentane
   23    22     1     0     0
SMALL
No Charge or Current Charge


@<TRIPOS>ATOM
      1 C1         -0.1770   -0.3060   -1.0580 c3        1 MOL     -0.089900
      2 C2         -1.6120    0.0270   -1.4680 c3        1 MOL     -0.067000
      3 C3         -1.7820   -0.1980   -2.9740 c3        1 MOL     -0.089900
      4 C4         -2.6540   -0.8080   -0.6980 c3        1 MOL     -0.070600
      5 C5         -2.6480   -0.6470    0.8360 c3        1 MOL     -0.067000
      6 C6         -2.9180    0.7930    1.2740 c3        1 MOL     -0.089900
      7 C7         -3.6950   -1.5790    1.4550 c3        1 MOL     -0.089900
      8 H1         -0.0350   -0.1510    0.0170 hc        1 MOL      0.033000
      9 H2          0.0660   -1.3520   -1.2680 hc        1 MOL      0.033000
     10 H3          0.5440    0.3260   -1.5870 hc        1 MOL      0.033000
     11 H4         -1.7880    1.0910   -1.2770 hc        1 MOL      0.046200
     12 H5         -2.8050    0.0350   -3.2890 hc        1 MOL      0.033000
     13 H6         -1.0980    0.4340   -3.5510 hc        1 MOL      0.033000
     14 H7         -1.5830   -1.2420   -3.2360 hc        1 MOL      0.033000
     15 H8         -2.5020   -1.8700   -0.9380 hc        1 MOL      0.038100
     16 H9         -3.6540   -0.5520   -1.0750 hc        1 MOL      0.038100
     17 H10        -1.6710   -0.9510    1.2270 hc        1 MOL      0.046200
     18 H11        -2.9090    0.8860    2.3640 hc        1 MOL      0.033000
     19 H12        -2.1670    1.4790    0.8660 hc        1 MOL      0.033000
     20 H13        -3.9020    1.1260    0.9280 hc        1 MOL      0.033000
     21 H14        -3.7070   -1.4800    2.5460 hc        1 MOL      0.033000
     22 H15        -4.7000   -1.3520    1.0830 hc        1 MOL      0.033000
     23 H16        -3.4730   -2.6250    1.2190 hc        1 MOL      0.033000
@<TRIPOS>BOND
     1    1    2 1   
     2    2    3 1   
     3    2    4 1   
     4    4    5 1   
     5    5    6 1   
     6    5    7 1   
     7    1    8 1   
     8    1    9 1   
     9    1   10 1   
    10    2   11 1   
    11    3   12 1   
    12    3   13 1   
    13    3   14 1   
    14    4   15 1   
    15    4   16 1   
    16    5   17 1   
    17    6   18 1   
    18    6   19 1   
    19    6   20 1   
    20    7   21 1   
    21    7   22 1   
    22    7   23 1   
@<TRIPOS>SUBSTRUCTURE
     1 MOL         1 TEMP              0 ****  ****    0 ROOT
