@<TRIPOS>MOLECULE
3,5-dichloro-2,6-dimethoxy-phenol
   21    21     1     0     0
SMALL
No Charge or Current Charge


@<TRIPOS>ATOM
      1 C1          1.3120   -2.1090   -2.1510 c3        1 MOL      0.111600
      2 O1          1.9130   -1.0100   -1.4760 os        1 MOL     -0.326200
      3 C2          1.8850   -1.0360   -0.1120 ca        1 MOL      0.044500
      4 C3          2.9210   -1.6310    0.6080 ca        1 MOL      0.038300
      5 C4          2.8780   -1.6520    2.0020 ca        1 MOL     -0.144500
      6 C5          1.8000   -1.0790    2.6760 ca        1 MOL      0.038300
      7 C6          0.7640   -0.4840    1.9550 ca        1 MOL      0.044500
      8 C7          0.8070   -0.4630    0.5610 ca        1 MOL      0.122500
      9 O2         -0.2060    0.1190   -0.1430 oh        1 MOL     -0.476000
     10 O3         -0.2980    0.0810    2.6000 os        1 MOL     -0.326200
     11 C8         -1.4140   -0.7640    2.8700 c3        1 MOL      0.111600
     12 Cl1         1.7740   -1.1190    4.4000 cl        1 MOL     -0.061300
     13 Cl2         4.2670   -2.3490   -0.1980 cl        1 MOL     -0.061300
     14 H1          1.4010   -1.9670   -3.2310 h1        1 MOL      0.046500
     15 H2          0.2590   -2.1800   -1.8680 h1        1 MOL      0.046500
     16 H3          1.8280   -3.0280   -1.8630 h1        1 MOL      0.046500
     17 H4          3.6860   -2.1160    2.5640 ha        1 MOL      0.166700
     18 H5         -0.0310    0.0530   -1.0950 ho        1 MOL      0.438500
     19 H6         -2.1810   -0.1860    3.3840 h1        1 MOL      0.046500
     20 H7         -1.0860   -1.5990    3.4880 h1        1 MOL      0.046500
     21 H8         -1.8040   -1.1350    1.9230 h1        1 MOL      0.046500
@<TRIPOS>BOND
     1    1    2 1   
     2    2    3 1   
     3    3    8 ar  
     4    3    4 ar  
     5    4    5 ar  
     6    5    6 ar  
     7    6    7 ar  
     8    7    8 ar  
     9    8    9 1   
    10    7   10 1   
    11   10   11 1   
    12    6   12 1   
    13    4   13 1   
    14    1   14 1   
    15    1   15 1   
    16    1   16 1   
    17    5   17 1   
    18    9   18 1   
    19   11   19 1   
    20   11   20 1   
    21   11   21 1   
@<TRIPOS>SUBSTRUCTURE
     1 MOL         1 TEMP              0 ****  ****    0 ROOT
