@<TRIPOS>MOLECULE
2-acetoxybenzoic
   21    21     1     0     0
SMALL
No Charge or Current Charge


@<TRIPOS>ATOM
      1 C1          1.4680   -2.0390   -3.5390 c3        1 MOL     -0.187500
      2 C2          1.3500   -2.1440   -2.0480 c         1 MOL      0.639800
      3 O1          0.8140   -3.0760   -1.4640 o         1 MOL     -0.445800
      4 O2          1.9460   -1.0260   -1.4740 os        1 MOL     -0.351200
      5 C3          1.8850   -1.0360   -0.1120 ca        1 MOL      0.173400
      6 C4          2.9210   -1.6310    0.6080 ca        1 MOL     -0.204000
      7 C5          2.8780   -1.6520    2.0020 ca        1 MOL     -0.072300
      8 C6          1.8000   -1.0790    2.6760 ca        1 MOL     -0.163400
      9 C7          0.7640   -0.4840    1.9550 ca        1 MOL     -0.053700
     10 C8          0.8070   -0.4630    0.5610 ca        1 MOL     -0.144300
     11 C9         -0.2850    0.1630   -0.1720 c         1 MOL      0.652700
     12 O3         -0.1830    0.7170   -1.2700 o         1 MOL     -0.520000
     13 O4         -1.4710    0.0760    0.4900 oh        1 MOL     -0.618100
     14 H1          0.5970   -1.5170   -3.9440 hc        1 MOL      0.081900
     15 H2          1.5040   -3.0430   -3.9710 hc        1 MOL      0.081900
     16 H3          2.3890   -1.5130   -3.8020 hc        1 MOL      0.081900
     17 H4          3.7640   -2.0790    0.0900 ha        1 MOL      0.153500
     18 H5          3.6850   -2.1150    2.5630 ha        1 MOL      0.143100
     19 H6          1.7660   -1.0950    3.7610 ha        1 MOL      0.144900
     20 H7         -0.0710   -0.0410    2.4910 ha        1 MOL      0.160600
     21 H8         -2.2130    0.4940    0.0040 ho        1 MOL      0.446700
@<TRIPOS>BOND
     1    1    2 1   
     2    2    3 2   
     3    2    4 1   
     4    4    5 1   
     5    5   10 ar  
     6    5    6 ar  
     7    6    7 ar  
     8    7    8 ar  
     9    8    9 ar  
    10    9   10 ar  
    11   10   11 1   
    12   11   12 2   
    13   11   13 1   
    14    1   14 1   
    15    1   15 1   
    16    1   16 1   
    17    6   17 1   
    18    7   18 1   
    19    8   19 1   
    20    9   20 1   
    21   13   21 1   
@<TRIPOS>SUBSTRUCTURE
     1 MOL         1 TEMP              0 ****  ****    0 ROOT
