@<TRIPOS>MOLECULE
N-(3,4-dichlorophenyl)propanamide
   22    22     1     0     0
SMALL
No Charge or Current Charge


@<TRIPOS>ATOM
      1 C1         -0.6160   -0.8900   -0.1620 c3        1 MOL     -0.086400
      2 C2         -1.0340   -0.9860   -1.6180 c3        1 MOL     -0.157500
      3 C3         -1.8950   -2.2080   -1.9030 c         1 MOL      0.672200
      4 O1         -2.1990   -3.0090   -1.0250 o         1 MOL     -0.575600
      5 N1         -2.2510   -2.2510   -3.2480 n         1 MOL     -0.477900
      6 C4         -3.0420   -3.2270   -3.9000 ca        1 MOL      0.085700
      7 C5         -3.5610   -4.3000   -3.1770 ca        1 MOL     -0.153600
      8 C6         -4.3410   -5.2620   -3.8190 ca        1 MOL     -0.089500
      9 C7         -4.6020   -5.1500   -5.1850 ca        1 MOL     -0.014600
     10 C8         -4.0820   -4.0760   -5.9080 ca        1 MOL      0.049000
     11 C9         -3.3020   -3.1150   -5.2660 ca        1 MOL     -0.183600
     12 Cl1        -4.3710   -3.8820   -7.6020 cl        1 MOL     -0.072700
     13 Cl2        -5.5770   -6.3720   -5.9230 cl        1 MOL     -0.071300
     14 H1          0.0020   -0.0030    0.0120 hc        1 MOL      0.048900
     15 H2         -0.0360   -1.7720    0.1280 hc        1 MOL      0.048900
     16 H3         -1.4900   -0.8250    0.4950 hc        1 MOL      0.048900
     17 H4         -0.1410   -1.0350   -2.2520 hc        1 MOL      0.063500
     18 H5         -1.6000   -0.0900   -1.8960 hc        1 MOL      0.063500
     19 H6         -1.9010   -1.4930   -3.8300 hn        1 MOL      0.318200
     20 H7         -3.3650   -4.3960   -2.1120 ha        1 MOL      0.182700
     21 H8         -4.7400   -6.0900   -3.2390 ha        1 MOL      0.154200
     22 H9         -2.8940   -2.2750   -5.8250 ha        1 MOL      0.146900
@<TRIPOS>BOND
     1    1    2 1   
     2    2    3 1   
     3    3    4 2   
     4    3    5 1   
     5    5    6 1   
     6    6   11 ar  
     7    6    7 ar  
     8    7    8 ar  
     9    8    9 ar  
    10    9   10 ar  
    11   10   11 ar  
    12   10   12 1   
    13    9   13 1   
    14    1   14 1   
    15    1   15 1   
    16    1   16 1   
    17    2   17 1   
    18    2   18 1   
    19    5   19 1   
    20    7   20 1   
    21    8   21 1   
    22   11   22 1   
@<TRIPOS>SUBSTRUCTURE
     1 MOL         1 TEMP              0 ****  ****    0 ROOT
