@<TRIPOS>MOLECULE
(1R,2R,3S,5R,6S,7S)-1,3,5,7,8,9,10,10-octachloro-tricyclo[5.2.1.0^{2,6}]dec-8-ene
   24    26     1     0     0
SMALL
No Charge or Current Charge


@<TRIPOS>ATOM
      1 C1         -0.3000   -1.4430    2.4940 c3        1 MOL     -0.099700
      2 C2         -1.2520   -0.2960    2.1930 c3        1 MOL      0.055000
      3 H1         -2.2670   -0.6700    2.3790 h1        1 MOL      0.075500
      4 C3         -1.1660    0.0240    0.6880 c3        1 MOL     -0.068100
      5 H2         -2.2110    0.0900    0.3450 hc        1 MOL      0.082800
      6 C4         -0.4910   -1.2620    0.0250 c3        1 MOL     -0.068100
      7 H3         -1.2380   -1.7630   -0.6110 hc        1 MOL      0.082800
      8 C5         -0.2360   -2.2320    1.1960 c3        1 MOL      0.055000
      9 H4         -1.0770   -2.9360    1.2120 h1        1 MOL      0.075500
     10 Cl1         1.2030   -3.2530    1.1290 cl        1 MOL     -0.143000
     11 C6          0.5870   -0.6140   -0.9250 c3        1 MOL      0.089100
     12 C7         -0.2610    0.0640   -2.0020 c2        1 MOL     -0.044700
     13 C8         -0.8270    1.1430   -1.4470 c2        1 MOL     -0.044700
     14 C9         -0.3660    1.2020    0.0100 c3        1 MOL      0.089100
     15 C10         1.0820    0.6680   -0.1940 c3        1 MOL      0.139100
     16 Cl2         2.0340    0.4100    1.2780 cl        1 MOL     -0.086800
     17 Cl3         2.1260    1.7470   -1.2250 cl        1 MOL     -0.086800
     18 Cl4        -0.4800    2.8000    0.7200 cl        1 MOL     -0.058000
     19 Cl5        -1.9510    2.2010   -2.1450 cl        1 MOL     -0.002900
     20 Cl6        -0.5070   -0.5510   -3.5620 cl        1 MOL     -0.002900
     21 Cl7         1.8520   -1.6420   -1.5690 cl        1 MOL     -0.058000
     22 Cl8        -1.0470    1.0330    3.3370 cl        1 MOL     -0.143000
     23 H5         -0.6910   -2.0670    3.3070 hc        1 MOL      0.081400
     24 H6          0.6800   -1.1040    2.8350 hc        1 MOL      0.081400
@<TRIPOS>BOND
     1    1    8 1   
     2    1    2 1   
     3    2    3 1   
     4    2    4 1   
     5    4    5 1   
     6    4   14 1   
     7    4    6 1   
     8    6    7 1   
     9    6    8 1   
    10    8    9 1   
    11    8   10 1   
    12    6   11 1   
    13   11   15 1   
    14   11   12 1   
    15   12   13 2   
    16   13   14 1   
    17   14   15 1   
    18   15   16 1   
    19   15   17 1   
    20   14   18 1   
    21   13   19 1   
    22   12   20 1   
    23   11   21 1   
    24    2   22 1   
    25    1   23 1   
    26    1   24 1   
@<TRIPOS>SUBSTRUCTURE
     1 MOL         1 TEMP              0 ****  ****    0 ROOT
