@<TRIPOS>MOLECULE
2,2,2-trifluoroethanol
    9     8     1     0     0
SMALL
No Charge or Current Charge


@<TRIPOS>ATOM
      1 C1          0.7720   -0.3320    0.7000 c3        1 MOL      0.094700
      2 C2          1.3430    0.8420    1.4540 c3        1 MOL      0.632100
      3 F1          1.8880    1.7360    0.6000 f         1 MOL     -0.232200
      4 F2          2.3080    0.4510    2.3120 f         1 MOL     -0.232200
      5 F3          0.3870    1.4810    2.1610 f         1 MOL     -0.232200
      6 O1          1.8120   -0.9630   -0.0310 oh        1 MOL     -0.577100
      7 H1          0.3380   -1.0580    1.3930 h1        1 MOL      0.063100
      8 H2          0.0000    0.0000    0.0000 h1        1 MOL      0.063100
      9 H3          1.4110   -1.7120   -0.5020 ho        1 MOL      0.420700
@<TRIPOS>BOND
     1    1    2 1   
     2    2    3 1   
     3    2    4 1   
     4    2    5 1   
     5    1    6 1   
     6    1    7 1   
     7    1    8 1   
     8    6    9 1   
@<TRIPOS>SUBSTRUCTURE
     1 MOL         1 TEMP              0 ****  ****    0 ROOT
