@<TRIPOS>MOLECULE
1,2-dichloroethane
    8     7     1     0     0
SMALL
No Charge or Current Charge


@<TRIPOS>ATOM
      1 C1         -0.5450   -0.5060   -0.1990 c3        1 MOL      0.020000
      2 C2          0.4800    0.4210    0.4300 c3        1 MOL      0.020000
      3 Cl1         1.8140    0.7910   -0.6890 cl        1 MOL     -0.171600
      4 Cl2        -1.2730    0.2060   -1.6600 cl        1 MOL     -0.171600
      5 H1         -1.3610   -0.6950    0.5050 h1        1 MOL      0.075800
      6 H2         -0.1030   -1.4680   -0.4750 h1        1 MOL      0.075800
      7 H3          0.0290    1.3680    0.7440 h1        1 MOL      0.075800
      8 H4          0.9230   -0.0530    1.3110 h1        1 MOL      0.075800
@<TRIPOS>BOND
     1    1    2 1   
     2    2    3 1   
     3    1    4 1   
     4    1    5 1   
     5    1    6 1   
     6    2    7 1   
     7    2    8 1   
@<TRIPOS>SUBSTRUCTURE
     1 MOL         1 TEMP              0 ****  ****    0 ROOT
