@<TRIPOS>MOLECULE
1-nitropropane
   13    12     1     0     0
SMALL
No Charge or Current Charge


@<TRIPOS>ATOM
      1 C1          1.0420    0.0280   -0.3330 c3        1 MOL     -0.093800
      2 C2          1.4380    1.4520   -0.6970 c3        1 MOL     -0.094800
      3 C3          2.8930    1.5600   -1.1250 c3        1 MOL     -0.075100
      4 N1          3.2020    2.9510   -1.4590 no        1 MOL      0.228300
      5 O1          3.6200    3.6920   -0.5450 o         1 MOL     -0.210100
      6 O2          3.0150    3.3300   -2.6330 o         1 MOL     -0.210100
      7 H1         -0.0080   -0.0210   -0.0290 hc        1 MOL      0.044800
      8 H2          1.1770   -0.6320   -1.1960 hc        1 MOL      0.044800
      9 H3          1.6560   -0.3590    0.4860 hc        1 MOL      0.044800
     10 H4          1.2730    2.0970    0.1740 hc        1 MOL      0.066200
     11 H5          0.7830    1.8130   -1.4990 hc        1 MOL      0.066200
     12 H6          3.5560    1.2540   -0.3110 h1        1 MOL      0.094400
     13 H7          3.1050    0.9360   -1.9980 h1        1 MOL      0.094400
@<TRIPOS>BOND
     1    1    2 1   
     2    2    3 1   
     3    3    4 1   
     4    4    5 1   
     5    4    6 1   
     6    1    7 1   
     7    1    8 1   
     8    1    9 1   
     9    2   10 1   
    10    2   11 1   
    11    3   12 1   
    12    3   13 1   
@<TRIPOS>SUBSTRUCTURE
     1 MOL         1 TEMP              0 ****  ****    0 ROOT
