@<TRIPOS>MOLECULE
1,3,5-triazinane-2,4,6-trione
   12    12     1     0     0
SMALL
No Charge or Current Charge


@<TRIPOS>ATOM
      1 C1         -0.6630    1.1630    0.5050 c         1 MOL      0.821800
      2 O1         -1.2340    2.1640    0.9400 o         1 MOL     -0.605200
      3 N1         -0.4840    0.0080    1.2610 n         1 MOL     -0.591800
      4 C2          0.1500   -1.1560    0.8310 c         1 MOL      0.821900
      5 O2          0.2790   -2.1500    1.5460 o         1 MOL     -0.605200
      6 N2          0.6250   -1.0980   -0.4770 n         1 MOL     -0.591800
      7 C3          0.5130   -0.0080   -1.3360 c         1 MOL      0.821900
      8 O3          0.9540   -0.0140   -2.4860 o         1 MOL     -0.605200
      9 N3         -0.1410    1.0910   -0.7840 n         1 MOL     -0.591800
     10 H1         -0.8470    0.0130    2.2100 hn        1 MOL      0.375200
     11 H2          1.0950   -1.9240   -0.8360 hn        1 MOL      0.375200
     12 H3         -0.2470    1.9110   -1.3740 hn        1 MOL      0.375200
@<TRIPOS>BOND
     1    1    9 1   
     2    1    2 2   
     3    1    3 1   
     4    3    4 1   
     5    4    5 2   
     6    4    6 1   
     7    6    7 1   
     8    7    8 2   
     9    7    9 1   
    10    3   10 1   
    11    6   11 1   
    12    9   12 1   
@<TRIPOS>SUBSTRUCTURE
     1 MOL         1 TEMP              0 ****  ****    0 ROOT
