@<TRIPOS>MOLECULE
1,2-dihydroacenaphthylene
   22    24     1     0     0
SMALL
No Charge or Current Charge


@<TRIPOS>ATOM
      1 C1          5.8400   -0.4220    0.1830 ca        1 MOL     -0.122300
      2 C2          4.6660    0.2960   -0.1180 ca        1 MOL     -0.119500
      3 C3          3.4050   -0.2820    0.1220 ca        1 MOL     -0.020700
      4 C4          2.1390    0.2830   -0.1160 ca        1 MOL     -0.119500
      5 C5          0.9730   -0.4470    0.1880 ca        1 MOL     -0.122300
      6 C6          1.0450   -1.7420    0.7280 ca        1 MOL     -0.121700
      7 C7          2.2910   -2.2970    0.9610 ca        1 MOL     -0.070800
      8 C8          3.4130   -1.5710    0.6600 ca        1 MOL     -0.063300
      9 C9          4.5420   -2.2860    0.9590 ca        1 MOL     -0.070800
     10 C10         5.7820   -1.7170    0.7230 ca        1 MOL     -0.121700
     11 C11         4.2010   -3.6340    1.5210 c3        1 MOL     -0.033300
     12 C12         2.6480   -3.6420    1.5230 c3        1 MOL     -0.033300
     13 H1          6.8070    0.0360   -0.0070 ha        1 MOL      0.129500
     14 H2          4.7430    1.2970   -0.5360 ha        1 MOL      0.131600
     15 H3          2.0500    1.2830   -0.5330 ha        1 MOL      0.131600
     16 H4          0.0000    0.0000   -0.0000 ha        1 MOL      0.129500
     17 H5          0.1370   -2.2900    0.9560 ha        1 MOL      0.134100
     18 H6          6.6960   -2.2560    0.9490 ha        1 MOL      0.134100
     19 H7          4.5930   -4.4360    0.8880 hc        1 MOL      0.057300
     20 H8          4.5920   -3.7480    2.5370 hc        1 MOL      0.057300
     21 H9          2.2620   -4.4480    0.8910 hc        1 MOL      0.057300
     22 H10         2.2610   -3.7600    2.5410 hc        1 MOL      0.057300
@<TRIPOS>BOND
     1    1   10 ar  
     2    1    2 ar  
     3    2    3 ar  
     4    3    8 ar  
     5    3    4 ar  
     6    4    5 ar  
     7    5    6 ar  
     8    6    7 ar  
     9    7   12 1   
    10    7    8 ar  
    11    8    9 ar  
    12    9   10 ar  
    13    9   11 1   
    14   11   12 1   
    15    1   13 1   
    16    2   14 1   
    17    4   15 1   
    18    5   16 1   
    19    6   17 1   
    20   10   18 1   
    21   11   19 1   
    22   11   20 1   
    23   12   21 1   
    24   12   22 1   
@<TRIPOS>SUBSTRUCTURE
     1 MOL         1 TEMP              0 ****  ****    0 ROOT
