@<TRIPOS>MOLECULE
propylcyclopentane
   24    24     1     0     0
SMALL
No Charge or Current Charge


@<TRIPOS>ATOM
      1 C1          2.6340   -1.6920   -5.5630 c3        1 MOL     -0.092600
      2 C2          2.0880   -1.4960   -4.1580 c3        1 MOL     -0.080800
      3 C3          0.5910   -1.1930   -4.1770 c3        1 MOL     -0.069000
      4 C4          0.0450   -0.9980   -2.7730 c3        1 MOL     -0.069700
      5 C5          0.6370    0.2130   -2.0600 c3        1 MOL     -0.076900
      6 C6         -0.3400    0.4880   -0.9210 c3        1 MOL     -0.080200
      7 C7         -1.6800   -0.1060   -1.3570 c3        1 MOL     -0.080200
      8 C8         -1.4490   -0.6930   -2.7460 c3        1 MOL     -0.076900
      9 H1          3.7070   -1.9080   -5.5400 hc        1 MOL      0.032200
     10 H2          2.1270   -2.5190   -6.0690 hc        1 MOL      0.032200
     11 H3          2.4830   -0.7850   -6.1580 hc        1 MOL      0.032200
     12 H4          2.2770   -2.4010   -3.5690 hc        1 MOL      0.039100
     13 H5          2.6280   -0.6750   -3.6720 hc        1 MOL      0.039100
     14 H6          0.4020   -0.2880   -4.7650 hc        1 MOL      0.040500
     15 H7          0.0510   -2.0140   -4.6620 hc        1 MOL      0.040500
     16 H8          0.2420   -1.9010   -2.1810 hc        1 MOL      0.044900
     17 H9          1.6520    0.0270   -1.6940 hc        1 MOL      0.041700
     18 H10         0.6760    1.0810   -2.7300 hc        1 MOL      0.041700
     19 H11         0.0010    0.0010    0.0000 hc        1 MOL      0.039700
     20 H12        -0.4170    1.5600   -0.7140 hc        1 MOL      0.039700
     21 H13        -1.9820   -0.8930   -0.6570 hc        1 MOL      0.039700
     22 H14        -2.4750    0.6460   -1.3690 hc        1 MOL      0.039700
     23 H15        -2.0610   -1.5830   -2.9210 hc        1 MOL      0.041700
     24 H16        -1.7110    0.0500   -3.5100 hc        1 MOL      0.041700
@<TRIPOS>BOND
     1    1    2 1   
     2    2    3 1   
     3    3    4 1   
     4    4    8 1   
     5    4    5 1   
     6    5    6 1   
     7    6    7 1   
     8    7    8 1   
     9    1    9 1   
    10    1   10 1   
    11    1   11 1   
    12    2   12 1   
    13    2   13 1   
    14    3   14 1   
    15    3   15 1   
    16    4   16 1   
    17    5   17 1   
    18    5   18 1   
    19    6   19 1   
    20    6   20 1   
    21    7   21 1   
    22    7   22 1   
    23    8   23 1   
    24    8   24 1   
@<TRIPOS>SUBSTRUCTURE
     1 MOL         1 TEMP              0 ****  ****    0 ROOT
