@<TRIPOS>MOLECULE
propyl
   14    13     1     0     0
SMALL
No Charge or Current Charge


@<TRIPOS>ATOM
      1 C1         -0.0040   -0.6640    0.8700 c3        1 MOL     -0.094100
      2 C2          1.2440   -0.4430    1.7060 c3        1 MOL     -0.085400
      3 C3          1.2750   -1.3490    2.9270 c3        1 MOL      0.135700
      4 O1          2.4640   -1.0910    3.6610 os        1 MOL     -0.452000
      5 C4          2.6330   -1.8330    4.7910 c         1 MOL      0.629500
      6 O2          1.8810   -2.6860    5.2350 o         1 MOL     -0.540600
      7 H1         -0.0110   -0.0050   -0.0040 hc        1 MOL      0.038100
      8 H2         -0.0450   -1.6990    0.5160 hc        1 MOL      0.038100
      9 H3         -0.9070   -0.4690    1.4560 hc        1 MOL      0.038100
     10 H4          1.2990    0.6050    2.0240 hc        1 MOL      0.054200
     11 H5          2.1380   -0.6190    1.0950 hc        1 MOL      0.054200
     12 H6          0.4160   -1.1580    3.5780 h1        1 MOL      0.052000
     13 H7          1.2700   -2.4040    2.6320 h1        1 MOL      0.052000
     14 H8          3.5830   -1.5440    5.2670 h5        1 MOL      0.080100
@<TRIPOS>BOND
     1    1    2 1   
     2    2    3 1   
     3    3    4 1   
     4    4    5 1   
     5    5    6 2   
     6    1    7 1   
     7    1    8 1   
     8    1    9 1   
     9    2   10 1   
    10    2   11 1   
    11    3   12 1   
    12    3   13 1   
    13    5   14 1   
@<TRIPOS>SUBSTRUCTURE
     1 MOL         1 TEMP              0 ****  ****    0 ROOT
