@<TRIPOS>MOLECULE
pentanenitrile
   15    14     1     0     0
SMALL
No Charge or Current Charge


@<TRIPOS>ATOM
      1 C1          0.1080    0.9370    0.5560 c3        1 MOL     -0.093200
      2 C2          0.2520    0.6530    2.0420 c3        1 MOL     -0.080700
      3 C3          0.4020    1.9430    2.8480 c3        1 MOL     -0.079300
      4 C4          0.5470    1.6540    4.3410 c3        1 MOL     -0.021900
      5 C5          0.6900    2.8980    5.1090 c1        1 MOL      0.210300
      6 N1          0.8020    3.8800    5.7170 n1        1 MOL     -0.376800
      7 H1          0.0020    0.0070   -0.0120 hc        1 MOL      0.036700
      8 H2         -0.7790    1.5500    0.3720 hc        1 MOL      0.036700
      9 H3          0.9800    1.4760    0.1730 hc        1 MOL      0.036700
     10 H4         -0.6270    0.0970    2.3890 hc        1 MOL      0.040700
     11 H5          1.1260    0.0100    2.2030 hc        1 MOL      0.040700
     12 H6         -0.4710    2.5870    2.6770 hc        1 MOL      0.052300
     13 H7          1.2780    2.5000    2.4910 hc        1 MOL      0.052300
     14 H8         -0.3300    1.1030    4.7010 hc        1 MOL      0.072600
     15 H9          1.4210    1.0160    4.5140 hc        1 MOL      0.072600
@<TRIPOS>BOND
     1    1    2 1   
     2    2    3 1   
     3    3    4 1   
     4    4    5 1   
     5    5    6 3   
     6    1    7 1   
     7    1    8 1   
     8    1    9 1   
     9    2   10 1   
    10    2   11 1   
    11    3   12 1   
    12    3   13 1   
    13    4   14 1   
    14    4   15 1   
@<TRIPOS>SUBSTRUCTURE
     1 MOL         1 TEMP              0 ****  ****    0 ROOT
