@<TRIPOS>MOLECULE
pyrrolidine
   14    14     1     0     0
SMALL
No Charge or Current Charge


@<TRIPOS>ATOM
      1 C1          0.2640    0.4680    1.1550 c3        1 MOL     -0.085700
      2 C2          0.0090    1.2690   -0.1160 c3        1 MOL     -0.085700
      3 C3         -0.4200    0.2420   -1.1510 c3        1 MOL      0.150400
      4 N1          0.1680   -1.0040   -0.6680 n3        1 MOL     -0.812300
      5 C4         -0.0220   -0.9750    0.7790 c3        1 MOL      0.150400
      6 H1         -0.3730    0.8030    1.9800 hc        1 MOL      0.046700
      7 H2          1.3080    0.5900    1.4670 hc        1 MOL      0.046700
      8 H3         -0.7590    2.0340    0.0330 hc        1 MOL      0.046700
      9 H4          0.9310    1.7740   -0.4280 hc        1 MOL      0.046700
     10 H5         -1.5130    0.1610   -1.1810 h1        1 MOL      0.034500
     11 H6         -0.0650    0.4960   -2.1530 h1        1 MOL      0.034500
     12 H7         -0.3010   -1.8090   -1.0790 hn        1 MOL      0.358100
     13 H8         -1.0560   -1.2400    1.0320 h1        1 MOL      0.034500
     14 H9          0.6470   -1.6740    1.2900 h1        1 MOL      0.034500
@<TRIPOS>BOND
     1    1    5 1   
     2    1    2 1   
     3    2    3 1   
     4    3    4 1   
     5    4    5 1   
     6    1    6 1   
     7    1    7 1   
     8    2    8 1   
     9    2    9 1   
    10    3   10 1   
    11    3   11 1   
    12    4   12 1   
    13    5   13 1   
    14    5   14 1   
@<TRIPOS>SUBSTRUCTURE
     1 MOL         1 TEMP              0 ****  ****    0 ROOT
