@<TRIPOS>MOLECULE
9,10-dihydroanthracene
   26    28     1     0     0
SMALL
No Charge or Current Charge


@<TRIPOS>ATOM
      1 C1          2.0530   -0.1060   -0.6360 ca        1 MOL     -0.129400
      2 C2          0.7020    0.1770   -0.8100 ca        1 MOL     -0.129200
      3 C3          0.2470    0.6820   -2.0280 ca        1 MOL     -0.128500
      4 C4          1.1430    0.9190   -3.0810 ca        1 MOL     -0.068100
      5 C5          2.5060    0.6330   -2.9060 ca        1 MOL     -0.068100
      6 C6          2.9500    0.1150   -1.6800 ca        1 MOL     -0.128500
      7 C7          3.4950    0.8290   -4.0270 c3        1 MOL      0.008800
      8 C8          3.0240    1.7330   -5.1390 ca        1 MOL     -0.068100
      9 C9          3.9610    2.2620   -6.0390 ca        1 MOL     -0.128500
     10 C10         3.5500    3.0750   -7.0950 ca        1 MOL     -0.129200
     11 C11         2.1990    3.3580   -7.2690 ca        1 MOL     -0.129200
     12 C12         1.2580    2.8290   -6.3870 ca        1 MOL     -0.128500
     13 C13         1.6610    2.0190   -5.3140 ca        1 MOL     -0.068100
     14 C14         0.6170    1.4310   -4.3980 c3        1 MOL      0.008800
     15 H1          2.4080   -0.5050    0.3100 ha        1 MOL      0.131400
     16 H2         -0.0000   -0.0000   -0.0000 ha        1 MOL      0.131400
     17 H3         -0.8130    0.8880   -2.1540 ha        1 MOL      0.129500
     18 H4          4.0020   -0.1210   -1.5340 ha        1 MOL      0.129500
     19 H5          4.4140    1.2550   -3.6050 hc        1 MOL      0.060500
     20 H6          3.7350   -0.1520   -4.4550 hc        1 MOL      0.060500
     21 H7          5.0190    2.0390   -5.9220 ha        1 MOL      0.129500
     22 H8          4.2850    3.4820   -7.7850 ha        1 MOL      0.131400
     23 H9          1.8770    3.9870   -8.0940 ha        1 MOL      0.131400
     24 H10         0.2040    3.0490   -6.5410 ha        1 MOL      0.129500
     25 H11        -0.1330    2.2060   -4.1910 hc        1 MOL      0.060500
     26 H12         0.1230    0.6030   -4.9210 hc        1 MOL      0.060500
@<TRIPOS>BOND
     1    1    6 ar  
     2    1    2 ar  
     3    2    3 ar  
     4    3    4 ar  
     5    4   14 1   
     6    4    5 ar  
     7    5    6 ar  
     8    5    7 1   
     9    7    8 1   
    10    8   13 ar  
    11    8    9 ar  
    12    9   10 ar  
    13   10   11 ar  
    14   11   12 ar  
    15   12   13 ar  
    16   13   14 1   
    17    1   15 1   
    18    2   16 1   
    19    3   17 1   
    20    6   18 1   
    21    7   19 1   
    22    7   20 1   
    23    9   21 1   
    24   10   22 1   
    25   11   23 1   
    26   12   24 1   
    27   14   25 1   
    28   14   26 1   
@<TRIPOS>SUBSTRUCTURE
     1 MOL         1 TEMP              0 ****  ****    0 ROOT
