@<TRIPOS>MOLECULE
hydrogen
    3     2     1     0     0
SMALL
No Charge or Current Charge


@<TRIPOS>ATOM
      1 S1         -0.4570   -0.3300    0.2400 sh        1 MOL     -0.440500
      2 H1          0.0280    0.8930    0.4980 hs        1 MOL      0.220300
      3 H2          0.4290   -0.5630   -0.7380 hs        1 MOL      0.220300
@<TRIPOS>BOND
     1    1    2 1   
     2    1    3 1   
@<TRIPOS>SUBSTRUCTURE
     1 MOL         1 TEMP              0 ****  ****    0 ROOT
