@<TRIPOS>MOLECULE
pentylbenzene
   27    27     1     0     0
SMALL
No Charge or Current Charge


@<TRIPOS>ATOM
      1 C1         -0.8980    3.6490   -2.4910 c3        1 MOL     -0.092000
      2 C2         -0.8410    2.1940   -2.9280 c3        1 MOL     -0.079800
      3 C3         -0.0260    2.0260   -4.2110 c3        1 MOL     -0.078300
      4 C4          0.0280    0.5580   -4.6460 c3        1 MOL     -0.075000
      5 C5          0.8340    0.3370   -5.9300 c3        1 MOL     -0.035800
      6 C6          0.8890   -1.0980   -6.3590 ca        1 MOL     -0.076300
      7 C7          1.9170   -1.9230   -5.9020 ca        1 MOL     -0.127600
      8 C8          1.9690   -3.2580   -6.3020 ca        1 MOL     -0.128800
      9 C9          0.9940   -3.7680   -7.1580 ca        1 MOL     -0.132300
     10 C10        -0.0350   -2.9430   -7.6140 ca        1 MOL     -0.128800
     11 C11        -0.0870   -1.6080   -7.2150 ca        1 MOL     -0.127600
     12 H1         -1.4830    3.7600   -1.5720 hc        1 MOL      0.033100
     13 H2          0.1110    4.0280   -2.3000 hc        1 MOL      0.033100
     14 H3         -1.3540    4.2740   -3.2660 hc        1 MOL      0.033100
     15 H4         -0.3970    1.5940   -2.1250 hc        1 MOL      0.038900
     16 H5         -1.8610    1.8250   -3.0830 hc        1 MOL      0.038900
     17 H6          0.9880    2.4070   -4.0440 hc        1 MOL      0.038400
     18 H7         -0.4730    2.6310   -5.0110 hc        1 MOL      0.038400
     19 H8          0.4340   -0.0510   -3.8300 hc        1 MOL      0.042900
     20 H9         -0.9960    0.2050   -4.8230 hc        1 MOL      0.042900
     21 H10         1.8500    0.7310   -5.8080 hc        1 MOL      0.046300
     22 H11         0.3780    0.9170   -6.7420 hc        1 MOL      0.046300
     23 H12         2.6820   -1.5330   -5.2350 ha        1 MOL      0.130100
     24 H13         2.7700   -3.9000   -5.9460 ha        1 MOL      0.129800
     25 H14         1.0340   -4.8080   -7.4690 ha        1 MOL      0.130200
     26 H15        -0.7940   -3.3410   -8.2810 ha        1 MOL      0.129800
     27 H16        -0.8920   -0.9730   -7.5750 ha        1 MOL      0.130100
@<TRIPOS>BOND
     1    1    2 1   
     2    2    3 1   
     3    3    4 1   
     4    4    5 1   
     5    5    6 1   
     6    6   11 ar  
     7    6    7 ar  
     8    7    8 ar  
     9    8    9 ar  
    10    9   10 ar  
    11   10   11 ar  
    12    1   12 1   
    13    1   13 1   
    14    1   14 1   
    15    2   15 1   
    16    2   16 1   
    17    3   17 1   
    18    3   18 1   
    19    4   19 1   
    20    4   20 1   
    21    5   21 1   
    22    5   22 1   
    23    7   23 1   
    24    8   24 1   
    25    9   25 1   
    26   10   26 1   
    27   11   27 1   
@<TRIPOS>SUBSTRUCTURE
     1 MOL         1 TEMP              0 ****  ****    0 ROOT
