@<TRIPOS>MOLECULE
2,3-diacetoxypropyl
   29    28     1     0     0
SMALL
No Charge or Current Charge


@<TRIPOS>ATOM
      1 C1          1.1590    2.1230    3.2630 c3        1 MOL     -0.149600
      2 C2          0.9660    1.0110    2.2760 c         1 MOL      0.634400
      3 O1          0.7160   -0.1460    2.5870 o         1 MOL     -0.539400
      4 O2          1.1110    1.4950    1.0100 os        1 MOL     -0.441400
      5 C3          0.9520    0.5380   -0.0330 c3        1 MOL      0.128000
      6 C4          1.1440    1.2330   -1.3740 c3        1 MOL      0.142900
      7 C5          0.9860    0.2570   -2.5350 c3        1 MOL      0.128000
      8 O3          1.9530   -0.7820   -2.4280 os        1 MOL     -0.441400
      9 C6          1.9180   -1.7280   -3.4130 c         1 MOL      0.634400
     10 O4          1.1430   -1.7570   -4.3590 o         1 MOL     -0.539400
     11 C7          2.9860   -2.7520   -3.1720 c3        1 MOL     -0.149600
     12 O5          2.4670    1.7730   -1.4060 os        1 MOL     -0.421000
     13 C8          2.6180    2.9140   -2.1380 c         1 MOL      0.636500
     14 O6          1.7400    3.5020   -2.7550 o         1 MOL     -0.544600
     15 C9          4.0470    3.3630   -2.0810 c3        1 MOL     -0.148800
     16 H1          2.2130    2.1910    3.5430 hc        1 MOL      0.077400
     17 H2          0.5360    1.9490    4.1440 hc        1 MOL      0.077400
     18 H3          0.8580    3.0700    2.8050 hc        1 MOL      0.077400
     19 H4          1.6990   -0.2490    0.1170 h1        1 MOL      0.069800
     20 H5         -0.0520    0.1110    0.0500 h1        1 MOL      0.069800
     21 H6          0.4550    2.0800   -1.4720 h1        1 MOL      0.095700
     22 H7          1.1270    0.7530   -3.5000 h1        1 MOL      0.069800
     23 H8         -0.0020   -0.2150   -2.5210 h1        1 MOL      0.069800
     24 H9          2.5910   -3.5620   -2.5540 hc        1 MOL      0.077400
     25 H10         3.8470   -2.2830   -2.6880 hc        1 MOL      0.077400
     26 H11         3.3110   -3.1700   -4.1290 hc        1 MOL      0.077400
     27 H12         4.6110    2.9110   -2.9010 hc        1 MOL      0.077300
     28 H13         4.4830    3.0900   -1.1170 hc        1 MOL      0.077300
     29 H14         4.0900    4.4510   -2.1860 hc        1 MOL      0.077300
@<TRIPOS>BOND
     1    1    2 1   
     2    2    3 2   
     3    2    4 1   
     4    4    5 1   
     5    5    6 1   
     6    6    7 1   
     7    7    8 1   
     8    8    9 1   
     9    9   10 2   
    10    9   11 1   
    11    6   12 1   
    12   12   13 1   
    13   13   14 2   
    14   13   15 1   
    15    1   16 1   
    16    1   17 1   
    17    1   18 1   
    18    5   19 1   
    19    5   20 1   
    20    6   21 1   
    21    7   22 1   
    22    7   23 1   
    23   11   24 1   
    24   11   25 1   
    25   11   26 1   
    26   15   27 1   
    27   15   28 1   
    28   15   29 1   
@<TRIPOS>SUBSTRUCTURE
     1 MOL         1 TEMP              0 ****  ****    0 ROOT
