@<TRIPOS>MOLECULE
biphenyl
   22    23     1     0     0
SMALL
No Charge or Current Charge


@<TRIPOS>ATOM
      1 C1          1.8850   -1.0360   -0.1120 ca        1 MOL     -0.127800
      2 C2          2.9210   -1.6310    0.6080 ca        1 MOL     -0.130500
      3 C3          2.8780   -1.6520    2.0020 ca        1 MOL     -0.119400
      4 C4          1.8000   -1.0790    2.6760 cp        1 MOL     -0.035500
      5 C5          0.7640   -0.4840    1.9550 ca        1 MOL     -0.119400
      6 C6          0.8070   -0.4630    0.5610 ca        1 MOL     -0.130500
      7 C7          1.7550   -1.1010    4.1220 cp        1 MOL     -0.035500
      8 C8          2.9410   -1.0880    4.8560 ca        1 MOL     -0.119400
      9 C9          2.8980   -1.1090    6.2500 ca        1 MOL     -0.130500
     10 C10         1.6690   -1.1430    6.9100 ca        1 MOL     -0.127600
     11 C11         0.4830   -1.1550    6.1750 ca        1 MOL     -0.130500
     12 C12         0.5260   -1.1340    4.7810 ca        1 MOL     -0.119400
     13 H1          1.9170   -1.0210   -1.1980 ha        1 MOL      0.130900
     14 H2          3.7600   -2.0790    0.0840 ha        1 MOL      0.131800
     15 H3          3.6930   -2.1200    2.5500 ha        1 MOL      0.134200
     16 H4         -0.0840   -0.0330    2.4660 ha        1 MOL      0.134200
     17 H5         -0.0010   -0.0020    0.0000 ha        1 MOL      0.131800
     18 H6          3.9060   -1.0610    4.3570 ha        1 MOL      0.134200
     19 H7          3.8210   -1.0990    6.8220 ha        1 MOL      0.131800
     20 H8          1.6360   -1.1590    7.9950 ha        1 MOL      0.130900
     21 H9         -0.4730   -1.1830    6.6890 ha        1 MOL      0.131800
     22 H10        -0.4070   -1.1460    4.2220 ha        1 MOL      0.134200
@<TRIPOS>BOND
     1    1    6 ar  
     2    1    2 ar  
     3    2    3 ar  
     4    3    4 ar  
     5    4    5 ar  
     6    5    6 ar  
     7    4    7 1   
     8    7   12 ar  
     9    7    8 ar  
    10    8    9 ar  
    11    9   10 ar  
    12   10   11 ar  
    13   11   12 ar  
    14    1   13 1   
    15    2   14 1   
    16    3   15 1   
    17    5   16 1   
    18    6   17 1   
    19    8   18 1   
    20    9   19 1   
    21   10   20 1   
    22   11   21 1   
    23   12   22 1   
@<TRIPOS>SUBSTRUCTURE
     1 MOL         1 TEMP              0 ****  ****    0 ROOT
