@<TRIPOS>MOLECULE
buta-1,3-diene
   10     9     1     0     0
SMALL
No Charge or Current Charge


@<TRIPOS>ATOM
      1 C1          0.2090    0.2290    1.0400 c2        1 MOL     -0.208800
      2 C2         -0.4860   -0.3690    2.0140 ce        1 MOL     -0.137000
      3 C3         -1.5320   -1.3320    1.7660 ce        1 MOL     -0.137000
      4 C4         -2.2270   -1.9300    2.7410 c2        1 MOL     -0.208800
      5 H1          0.9920    0.9500    1.2500 ha        1 MOL      0.112200
      6 H2          0.0000    0.0000    0.0000 ha        1 MOL      0.112200
      7 H3         -0.2560   -0.1230    3.0470 ha        1 MOL      0.121400
      8 H4         -1.7620   -1.5790    0.7330 ha        1 MOL      0.121400
      9 H5         -3.0090   -2.6510    2.5300 ha        1 MOL      0.112200
     10 H6         -2.0170   -1.7020    3.7800 ha        1 MOL      0.112200
@<TRIPOS>BOND
     1    1    2 2   
     2    2    3 1   
     3    3    4 2   
     4    1    5 1   
     5    1    6 1   
     6    2    7 1   
     7    3    8 1   
     8    4    9 1   
     9    4   10 1   
@<TRIPOS>SUBSTRUCTURE
     1 MOL         1 TEMP              0 ****  ****    0 ROOT
