@<TRIPOS>MOLECULE
2-iodopropane
   11    10     1     0     0
SMALL
No Charge or Current Charge


@<TRIPOS>ATOM
      1 C1         -0.2700   -0.5440   -1.1410 c3        1 MOL     -0.092700
      2 C2         -0.1820   -0.4030    0.3760 c3        1 MOL      0.100700
      3 C3          0.2420    1.0080    0.7730 c3        1 MOL     -0.092700
      4 I1          1.2320   -1.8340    1.1580 i         1 MOL     -0.267600
      5 H1         -0.5740   -1.5570   -1.4280 hc        1 MOL      0.046300
      6 H2         -1.0110    0.1520   -1.5490 hc        1 MOL      0.046300
      7 H3          0.6900   -0.3330   -1.6260 hc        1 MOL      0.046300
      8 H4         -1.1650   -0.6150    0.8100 h1        1 MOL      0.074500
      9 H5          0.3050    1.1110    1.8620 hc        1 MOL      0.046300
     10 H6         -0.4860    1.7430    0.4130 hc        1 MOL      0.046300
     11 H7          1.2190    1.2720    0.3530 hc        1 MOL      0.046300
@<TRIPOS>BOND
     1    1    2 1   
     2    2    3 1   
     3    2    4 1   
     4    1    5 1   
     5    1    6 1   
     6    1    7 1   
     7    2    8 1   
     8    3    9 1   
     9    3   10 1   
    10    3   11 1   
@<TRIPOS>SUBSTRUCTURE
     1 MOL         1 TEMP              0 ****  ****    0 ROOT
