@<TRIPOS>MOLECULE
(methyldisulfanyl)methane
   10     9     1     0     0
SMALL
No Charge or Current Charge


@<TRIPOS>ATOM
      1 C1          0.8110   -0.6600    0.3190 c3        1 MOL     -0.049200
      2 S1          0.2410   -1.6600    1.7150 ss        1 MOL     -0.163800
      3 S2          1.8940   -2.8210    2.1000 ss        1 MOL     -0.163800
      4 C2          1.5890   -4.2570    1.0430 c3        1 MOL     -0.049100
      5 H1          0.0180    0.0210    0.0010 h1        1 MOL      0.071000
      6 H2          1.0810   -1.3090   -0.5170 h1        1 MOL      0.071000
      7 H3          1.6860   -0.0750    0.6150 h1        1 MOL      0.071000
      8 H4          2.4070   -4.9720    1.1500 h1        1 MOL      0.071000
      9 H5          1.5240   -3.9380    0.0020 h1        1 MOL      0.071000
     10 H6          0.6520   -4.7340    1.3350 h1        1 MOL      0.071000
@<TRIPOS>BOND
     1    1    2 1   
     2    2    3 1   
     3    3    4 1   
     4    1    5 1   
     5    1    6 1   
     6    1    7 1   
     7    4    8 1   
     8    4    9 1   
     9    4   10 1   
@<TRIPOS>SUBSTRUCTURE
     1 MOL         1 TEMP              0 ****  ****    0 ROOT
