@<TRIPOS>MOLECULE
1-chloropropane
   11    10     1     0     0
SMALL
No Charge or Current Charge


@<TRIPOS>ATOM
      1 C1          0.3670    0.5010    0.9010 c3        1 MOL     -0.093500
      2 C2          0.8900   -0.5270    1.8940 c3        1 MOL     -0.094700
      3 C3          1.5180    0.0930    3.1360 c3        1 MOL      0.040400
      4 Cl1         2.1150   -1.1410    4.2690 cl        1 MOL     -0.200300
      5 H1         -0.0740    0.0130    0.0270 hc        1 MOL      0.037800
      6 H2         -0.4060    1.1170    1.3710 hc        1 MOL      0.037800
      7 H3          1.1610    1.1720    0.5580 hc        1 MOL      0.037800
      8 H4          0.0770   -1.2050    2.1790 hc        1 MOL      0.054100
      9 H5          1.6480   -1.1390    1.3900 hc        1 MOL      0.054100
     10 H6          0.8000    0.7220    3.6710 h1        1 MOL      0.063200
     11 H7          2.3740    0.7140    2.8540 h1        1 MOL      0.063200
@<TRIPOS>BOND
     1    1    2 1   
     2    2    3 1   
     3    3    4 1   
     4    1    5 1   
     5    1    6 1   
     6    1    7 1   
     7    2    8 1   
     8    2    9 1   
     9    3   10 1   
    10    3   11 1   
@<TRIPOS>SUBSTRUCTURE
     1 MOL         1 TEMP              0 ****  ****    0 ROOT
