@<TRIPOS>MOLECULE
trimethoxymethane
   17    16     1     0     0
SMALL
No Charge or Current Charge


@<TRIPOS>ATOM
      1 C1         -0.6400    0.3200   -0.8310 c3        1 MOL      0.123900
      2 O1          0.0230    0.0000   -2.0470 os        1 MOL     -0.438300
      3 C2         -0.6860    0.4750   -3.1990 c3        1 MOL      0.499900
      4 O2         -0.2850   -0.2220   -4.3890 os        1 MOL     -0.438300
      5 C3         -0.9100   -1.4930   -4.5120 c3        1 MOL      0.123900
      6 O3         -0.5680    1.8970   -3.3760 os        1 MOL     -0.438300
      7 C4          0.7750    2.3320   -3.5420 c3        1 MOL      0.123900
      8 H1         -0.0600   -0.0630    0.0130 h1        1 MOL      0.040100
      9 H2         -1.6390   -0.1250   -0.8320 h1        1 MOL      0.040100
     10 H3         -0.7270    1.4050   -0.7480 h1        1 MOL      0.040100
     11 H4         -1.7580    0.2870   -3.0580 h3        1 MOL      0.082700
     12 H5         -0.5690   -1.9740   -5.4290 h1        1 MOL      0.040100
     13 H6         -1.9930   -1.3610   -4.5320 h1        1 MOL      0.040100
     14 H7         -0.6320   -2.1040   -3.6520 h1        1 MOL      0.040100
     15 H8          0.7890    3.4160   -3.6700 h1        1 MOL      0.040100
     16 H9          1.2060    1.8420   -4.4170 h1        1 MOL      0.040100
     17 H10         1.3440    2.0610   -2.6520 h1        1 MOL      0.040100
@<TRIPOS>BOND
     1    1    2 1   
     2    2    3 1   
     3    3    4 1   
     4    4    5 1   
     5    3    6 1   
     6    6    7 1   
     7    1    8 1   
     8    1    9 1   
     9    1   10 1   
    10    3   11 1   
    11    5   12 1   
    12    5   13 1   
    13    5   14 1   
    14    7   15 1   
    15    7   16 1   
    16    7   17 1   
@<TRIPOS>SUBSTRUCTURE
     1 MOL         1 TEMP              0 ****  ****    0 ROOT
