@<TRIPOS>MOLECULE
hex-1-ene
   18    17     1     0     0
SMALL
No Charge or Current Charge


@<TRIPOS>ATOM
      1 C1         -1.0510    2.6150    5.4660 c3        1 MOL     -0.092800
      2 C2         -1.0220    2.7710    3.9540 c3        1 MOL     -0.079300
      3 C3          0.0870    1.9290    3.3250 c3        1 MOL     -0.071900
      4 C4          0.1110    2.0900    1.8030 c3        1 MOL     -0.054900
      5 C5          1.2000    1.2630    1.1850 c2        1 MOL     -0.158900
      6 C6          0.9850    0.2960    0.2860 c2        1 MOL     -0.226000
      7 H1         -1.8480    3.2210    5.9090 hc        1 MOL      0.032100
      8 H2         -0.0990    2.9370    5.8990 hc        1 MOL      0.032100
      9 H3         -1.2160    1.5710    5.7500 hc        1 MOL      0.032100
     10 H4         -1.9940    2.4740    3.5440 hc        1 MOL      0.040800
     11 H5         -0.8740    3.8290    3.7050 hc        1 MOL      0.040800
     12 H6          1.0560    2.2260    3.7460 hc        1 MOL      0.039100
     13 H7         -0.0640    0.8730    3.5830 hc        1 MOL      0.039100
     14 H8         -0.8670    1.8170    1.3880 hc        1 MOL      0.045300
     15 H9          0.2850    3.1410    1.5440 hc        1 MOL      0.045300
     16 H10         2.2220    1.4780    1.4850 ha        1 MOL      0.116600
     17 H11         1.8170   -0.2640   -0.1280 ha        1 MOL      0.110200
     18 H12        -0.0150    0.0450   -0.0500 ha        1 MOL      0.110200
@<TRIPOS>BOND
     1    1    2 1   
     2    2    3 1   
     3    3    4 1   
     4    4    5 1   
     5    5    6 2   
     6    1    7 1   
     7    1    8 1   
     8    1    9 1   
     9    2   10 1   
    10    2   11 1   
    11    3   12 1   
    12    3   13 1   
    13    4   14 1   
    14    4   15 1   
    15    5   16 1   
    16    6   17 1   
    17    6   18 1   
@<TRIPOS>SUBSTRUCTURE
     1 MOL         1 TEMP              0 ****  ****    0 ROOT
