@<TRIPOS>MOLECULE
pyridine-3-carbaldehyde
   13    13     1     0     0
SMALL
No Charge or Current Charge


@<TRIPOS>ATOM
      1 C1          1.6520   -0.6230    2.9000 ca        1 MOL     -0.259400
      2 C2          1.3880   -0.0680    1.6520 ca        1 MOL     -0.037600
      3 C3          0.2270   -0.4200    0.9730 ca        1 MOL     -0.315800
      4 C4         -0.6320   -1.3220    1.5800 ca        1 MOL      0.438500
      5 N1         -0.4090   -1.8820    2.7910 nb        1 MOL     -0.673800
      6 C5          0.7300   -1.5160    3.4210 ca        1 MOL      0.422500
      7 C6         -0.0770    0.1410   -0.3320 c         1 MOL      0.582400
      8 O1          0.6600    0.9470   -0.9090 o         1 MOL     -0.523900
      9 H1          2.5500   -0.3620    3.4480 ha        1 MOL      0.151400
     10 H2          2.0920    0.6370    1.2190 ha        1 MOL      0.160000
     11 H3         -1.5540   -1.6340    1.0990 h4        1 MOL      0.025200
     12 H4          0.8880   -1.9750    4.3910 h4        1 MOL      0.027000
     13 H5         -1.0230   -0.1810   -0.8220 h4        1 MOL      0.003400
@<TRIPOS>BOND
     1    1    6 ar  
     2    1    2 ar  
     3    2    3 ar  
     4    3    4 ar  
     5    4    5 ar  
     6    5    6 ar  
     7    3    7 1   
     8    7    8 2   
     9    1    9 1   
    10    2   10 1   
    11    4   11 1   
    12    6   12 1   
    13    7   13 1   
@<TRIPOS>SUBSTRUCTURE
     1 MOL         1 TEMP              0 ****  ****    0 ROOT
