@<TRIPOS>MOLECULE
azetidine
   11    11     1     0     0
SMALL
No Charge or Current Charge


@<TRIPOS>ATOM
      1 C1          0.8690   -0.4840   -0.4590 cy        1 MOL     -0.115700
      2 C2          1.7750    0.4760   -1.2450 cy        1 MOL      0.124700
      3 N1          1.0600    0.1020   -2.5170 n3        1 MOL     -0.788300
      4 C3          0.5740   -1.1400   -1.8170 cy        1 MOL      0.124700
      5 H1         -0.0020    0.0030   -0.0050 hc        1 MOL      0.056000
      6 H2          1.3630   -1.1140    0.2850 hc        1 MOL      0.056000
      7 H3          1.6960    1.5330   -0.9750 h1        1 MOL      0.049500
      8 H4          2.8320    0.1890   -1.2550 h1        1 MOL      0.049500
      9 H5          1.7030   -0.1080   -3.2810 hn        1 MOL      0.344600
     10 H6         -0.4750   -1.3870   -2.0070 h1        1 MOL      0.049500
     11 H7          1.1910   -2.0180   -2.0340 h1        1 MOL      0.049500
@<TRIPOS>BOND
     1    1    4 1   
     2    1    2 1   
     3    2    3 1   
     4    3    4 1   
     5    1    5 1   
     6    1    6 1   
     7    2    7 1   
     8    2    8 1   
     9    3    9 1   
    10    4   10 1   
    11    4   11 1   
@<TRIPOS>SUBSTRUCTURE
     1 MOL         1 TEMP              0 ****  ****    0 ROOT
