@<TRIPOS>MOLECULE
4-propylphenol
   22    22     1     0     0
SMALL
No Charge or Current Charge


@<TRIPOS>ATOM
      1 C1          1.3040   -2.2290   -3.7210 c3        1 MOL     -0.093300
      2 C2          1.2580   -2.2530   -2.2020 c3        1 MOL     -0.077900
      3 C3          1.9290   -1.0150   -1.6030 c3        1 MOL     -0.031900
      4 C4          1.8850   -1.0360   -0.1120 ca        1 MOL     -0.112800
      5 C5          2.9210   -1.6310    0.6080 ca        1 MOL     -0.091900
      6 C6          2.8780   -1.6520    2.0020 ca        1 MOL     -0.183400
      7 C7          1.8000   -1.0790    2.6760 ca        1 MOL      0.120100
      8 C8          0.7640   -0.4840    1.9550 ca        1 MOL     -0.183400
      9 C9          0.8070   -0.4630    0.5610 ca        1 MOL     -0.091900
     10 O1          1.7580   -1.1000    4.0360 oh        1 MOL     -0.498700
     11 H1          0.8210   -3.1170   -4.1420 hc        1 MOL      0.033400
     12 H2          0.7970   -1.3430   -4.1160 hc        1 MOL      0.033400
     13 H3          2.3410   -2.2100   -4.0690 hc        1 MOL      0.033400
     14 H4          1.7530   -3.1630   -1.8420 hc        1 MOL      0.042800
     15 H5          0.2120   -2.3100   -1.8750 hc        1 MOL      0.042800
     16 H6          1.4370   -0.1080   -1.9750 hc        1 MOL      0.045900
     17 H7          2.9720   -0.9570   -1.9420 hc        1 MOL      0.045900
     18 H8          3.7660   -2.0790    0.0920 ha        1 MOL      0.133600
     19 H9          3.6880   -2.1160    2.5580 ha        1 MOL      0.141100
     20 H10        -0.0790   -0.0350    2.4740 ha        1 MOL      0.141100
     21 H11        -0.0050    0.0030    0.0080 ha        1 MOL      0.133600
     22 H12         0.9510   -0.6650    4.3540 ho        1 MOL      0.418300
@<TRIPOS>BOND
     1    1    2 1   
     2    2    3 1   
     3    3    4 1   
     4    4    9 ar  
     5    4    5 ar  
     6    5    6 ar  
     7    6    7 ar  
     8    7    8 ar  
     9    8    9 ar  
    10    7   10 1   
    11    1   11 1   
    12    1   12 1   
    13    1   13 1   
    14    2   14 1   
    15    2   15 1   
    16    3   16 1   
    17    3   17 1   
    18    5   18 1   
    19    6   19 1   
    20    8   20 1   
    21    9   21 1   
    22   10   22 1   
@<TRIPOS>SUBSTRUCTURE
     1 MOL         1 TEMP              0 ****  ****    0 ROOT
