@<TRIPOS>MOLECULE
3-methylpentane
   20    19     1     0     0
SMALL
No Charge or Current Charge


@<TRIPOS>ATOM
      1 C1          0.3890   -0.9600   -0.3920 c3        1 MOL     -0.091400
      2 C2         -0.7740   -1.8070   -0.8890 c3        1 MOL     -0.077200
      3 C3         -0.3420   -3.0440   -1.7050 c3        1 MOL     -0.064600
      4 C4          0.5420   -3.9830   -0.8790 c3        1 MOL     -0.089700
      5 C5         -1.6010   -3.7660   -2.2290 c3        1 MOL     -0.077200
      6 C6         -1.3000   -5.0090   -3.0540 c3        1 MOL     -0.091400
      7 H1          0.0320   -0.0980    0.1790 hc        1 MOL      0.032900
      8 H2          1.0330   -1.5570    0.2630 hc        1 MOL      0.032900
      9 H3          1.0080   -0.5990   -1.2180 hc        1 MOL      0.032900
     10 H4         -1.4100   -1.1690   -1.5160 hc        1 MOL      0.037200
     11 H5         -1.3850   -2.1160   -0.0320 hc        1 MOL      0.037200
     12 H6          0.2400   -2.6980   -2.5700 hc        1 MOL      0.044900
     13 H7          0.8450   -4.8570   -1.4650 hc        1 MOL      0.033500
     14 H8          0.0230   -4.3360    0.0170 hc        1 MOL      0.033500
     15 H9          1.4480   -3.4760   -0.5330 hc        1 MOL      0.033500
     16 H10        -2.2540   -4.0400   -1.3910 hc        1 MOL      0.037200
     17 H11        -2.1740   -3.0750   -2.8610 hc        1 MOL      0.037200
     18 H12        -2.2350   -5.4690   -3.3920 hc        1 MOL      0.032900
     19 H13        -0.7590   -5.7590   -2.4700 hc        1 MOL      0.032900
     20 H14        -0.7070   -4.7600   -3.9390 hc        1 MOL      0.032900
@<TRIPOS>BOND
     1    1    2 1   
     2    2    3 1   
     3    3    4 1   
     4    3    5 1   
     5    5    6 1   
     6    1    7 1   
     7    1    8 1   
     8    1    9 1   
     9    2   10 1   
    10    2   11 1   
    11    3   12 1   
    12    4   13 1   
    13    4   14 1   
    14    4   15 1   
    15    5   16 1   
    16    5   17 1   
    17    6   18 1   
    18    6   19 1   
    19    6   20 1   
@<TRIPOS>SUBSTRUCTURE
     1 MOL         1 TEMP              0 ****  ****    0 ROOT
