@<TRIPOS>MOLECULE
methoxymethane
    9     8     1     0     0
SMALL
No Charge or Current Charge


@<TRIPOS>ATOM
      1 C1         -0.6100   -0.5150    0.7480 c3        1 MOL      0.111900
      2 O1          0.0350   -0.4990    2.0140 os        1 MOL     -0.418200
      3 C2          1.2890   -1.1660    1.9690 c3        1 MOL      0.112000
      4 H1         -1.5690    0.0050    0.8200 h1        1 MOL      0.032400
      5 H2         -0.7680   -1.5490    0.4320 h1        1 MOL      0.032400
      6 H3          0.0240   -0.0060    0.0190 h1        1 MOL      0.032400
      7 H4          1.7510   -1.1310    2.9570 h1        1 MOL      0.032400
      8 H5          1.9300   -0.6780    1.2330 h1        1 MOL      0.032400
      9 H6          1.1230   -2.2040    1.6790 h1        1 MOL      0.032400
@<TRIPOS>BOND
     1    1    2 1   
     2    2    3 1   
     3    1    4 1   
     4    1    5 1   
     5    1    6 1   
     6    3    7 1   
     7    3    8 1   
     8    3    9 1   
@<TRIPOS>SUBSTRUCTURE
     1 MOL         1 TEMP              0 ****  ****    0 ROOT
