@<TRIPOS>MOLECULE
[(1S)-1-methylpropyl]benzene
   24    24     1     0     0
SMALL
No Charge or Current Charge


@<TRIPOS>ATOM
      1 C1          0.3470    0.8550    0.4440 c3        1 MOL     -0.095600
      2 C2          0.3960    0.8500    1.9670 c3        1 MOL     -0.074700
      3 C3         -0.9890    0.6450    2.6150 c3        1 MOL     -0.022300
      4 H1         -1.6320    1.4720    2.2850 hc        1 MOL      0.053600
      5 C4         -0.8830    0.7540    4.1410 c3        1 MOL     -0.087900
      6 C5         -1.6450   -0.6670    2.2200 ca        1 MOL     -0.068700
      7 C6         -3.0350   -0.7620    2.1630 ca        1 MOL     -0.129200
      8 C7         -3.6380   -1.9660    1.8000 ca        1 MOL     -0.129300
      9 C8         -2.8500   -3.0760    1.4950 ca        1 MOL     -0.134000
     10 C9         -1.4590   -2.9810    1.5520 ca        1 MOL     -0.129300
     11 C10        -0.8570   -1.7770    1.9150 ca        1 MOL     -0.129200
     12 H2          1.3530    1.0040    0.0370 hc        1 MOL      0.035900
     13 H3         -0.0330   -0.0920    0.0500 hc        1 MOL      0.035900
     14 H4         -0.2890    1.6650    0.0740 hc        1 MOL      0.035900
     15 H5          1.1040    0.0830    2.3000 hc        1 MOL      0.039000
     16 H6          0.8040    1.8140    2.2950 hc        1 MOL      0.039000
     17 H7         -1.8530    0.6120    4.6300 hc        1 MOL      0.036800
     18 H8         -0.1980   -0.0050    4.5350 hc        1 MOL      0.036800
     19 H9         -0.4990    1.7360    4.4390 hc        1 MOL      0.036800
     20 H10        -3.6560    0.0980    2.3990 ha        1 MOL      0.130800
     21 H11        -4.7200   -2.0400    1.7550 ha        1 MOL      0.129800
     22 H12        -3.3190   -4.0140    1.2120 ha        1 MOL      0.129300
     23 H13        -0.8460   -3.8460    1.3150 ha        1 MOL      0.129800
     24 H14         0.2280   -1.7130    1.9570 ha        1 MOL      0.130800
@<TRIPOS>BOND
     1    1    2 1   
     2    2    3 1   
     3    3    4 1   
     4    3    5 1   
     5    3    6 1   
     6    6   11 ar  
     7    6    7 ar  
     8    7    8 ar  
     9    8    9 ar  
    10    9   10 ar  
    11   10   11 ar  
    12    1   12 1   
    13    1   13 1   
    14    1   14 1   
    15    2   15 1   
    16    2   16 1   
    17    5   17 1   
    18    5   18 1   
    19    5   19 1   
    20    7   20 1   
    21    8   21 1   
    22    9   22 1   
    23   10   23 1   
    24   11   24 1   
@<TRIPOS>SUBSTRUCTURE
     1 MOL         1 TEMP              0 ****  ****    0 ROOT
