@<TRIPOS>MOLECULE
decane
   32    31     1     0     0
SMALL
No Charge or Current Charge


@<TRIPOS>ATOM
      1 C1          0.4670   -0.7510    0.2710 c3        1 MOL     -0.092000
      2 C2         -0.2980   -2.0320    0.5650 c3        1 MOL     -0.079100
      3 C3         -1.2680   -2.3760   -0.5660 c3        1 MOL     -0.078300
      4 C4         -2.0370   -3.6650   -0.2670 c3        1 MOL     -0.077900
      5 C5         -3.0070   -4.0070   -1.4000 c3        1 MOL     -0.077700
      6 C6         -3.8040   -5.2920   -1.1510 c3        1 MOL     -0.077700
      7 C7         -4.7730   -5.6310   -2.2860 c3        1 MOL     -0.077900
      8 C8         -5.5700   -6.9160   -2.0370 c3        1 MOL     -0.078300
      9 C9         -6.5390   -7.2580   -3.1690 c3        1 MOL     -0.079100
     10 C10        -7.3050   -8.5390   -2.8750 c3        1 MOL     -0.091900
     11 H1          1.1550   -0.5240    1.0920 hc        1 MOL      0.032700
     12 H2         -0.2160    0.0970    0.1560 hc        1 MOL      0.032700
     13 H3          1.0550   -0.8470   -0.6470 hc        1 MOL      0.032700
     14 H4         -0.8490   -1.9140    1.5050 hc        1 MOL      0.038000
     15 H5          0.4150   -2.8530    0.7060 hc        1 MOL      0.038000
     16 H6         -0.7120   -2.4880   -1.5050 hc        1 MOL      0.038400
     17 H7         -1.9760   -1.5500   -0.7060 hc        1 MOL      0.038400
     18 H8         -2.5850   -3.5450    0.6740 hc        1 MOL      0.038400
     19 H9         -1.3280   -4.4900   -0.1280 hc        1 MOL      0.038400
     20 H10        -2.4410   -4.1310   -2.3310 hc        1 MOL      0.038500
     21 H11        -3.6980   -3.1700   -1.5610 hc        1 MOL      0.038500
     22 H12        -4.3470   -5.1970   -0.2040 hc        1 MOL      0.038500
     23 H13        -3.0910   -6.1170   -1.0280 hc        1 MOL      0.038500
     24 H14        -5.4720   -4.8030   -2.4470 hc        1 MOL      0.038400
     25 H15        -4.2070   -5.7560   -3.2170 hc        1 MOL      0.038400
     26 H16        -4.8570   -7.7410   -1.9140 hc        1 MOL      0.038400
     27 H17        -6.1190   -6.8310   -1.0910 hc        1 MOL      0.038400
     28 H18        -7.2590   -6.4450   -3.3120 hc        1 MOL      0.038000
     29 H19        -5.9880   -7.3760   -4.1090 hc        1 MOL      0.038000
     30 H20        -7.9930   -8.7660   -3.6960 hc        1 MOL      0.032700
     31 H21        -6.6220   -9.3870   -2.7610 hc        1 MOL      0.032700
     32 H22        -7.8930   -8.4430   -1.9570 hc        1 MOL      0.032700
@<TRIPOS>BOND
     1    1    2 1   
     2    2    3 1   
     3    3    4 1   
     4    4    5 1   
     5    5    6 1   
     6    6    7 1   
     7    7    8 1   
     8    8    9 1   
     9    9   10 1   
    10    1   11 1   
    11    1   12 1   
    12    1   13 1   
    13    2   14 1   
    14    2   15 1   
    15    3   16 1   
    16    3   17 1   
    17    4   18 1   
    18    4   19 1   
    19    5   20 1   
    20    5   21 1   
    21    6   22 1   
    22    6   23 1   
    23    7   24 1   
    24    7   25 1   
    25    8   26 1   
    26    8   27 1   
    27    9   28 1   
    28    9   29 1   
    29   10   30 1   
    30   10   31 1   
    31   10   32 1   
@<TRIPOS>SUBSTRUCTURE
     1 MOL         1 TEMP              0 ****  ****    0 ROOT
