@<TRIPOS>MOLECULE
1-methyl-3-nitro-benzene
   17    17     1     0     0
SMALL
No Charge or Current Charge


@<TRIPOS>ATOM
      1 C1          1.9310   -1.0140   -1.6030 c3        1 MOL     -0.059100
      2 C2          1.8850   -1.0360   -0.1120 ca        1 MOL     -0.081900
      3 C3          2.9210   -1.6310    0.6080 ca        1 MOL     -0.091700
      4 C4          2.8780   -1.6520    2.0020 ca        1 MOL     -0.134900
      5 C5          1.8000   -1.0790    2.6760 ca        1 MOL     -0.072900
      6 C6          0.7640   -0.4840    1.9550 ca        1 MOL     -0.170900
      7 C7          0.8070   -0.4630    0.5610 ca        1 MOL     -0.073000
      8 N1         -0.3330    0.1010    2.6420 no        1 MOL      0.312500
      9 O1         -1.2540    0.6310    1.9750 o         1 MOL     -0.209200
     10 O2         -0.3500    0.0730    3.8960 o         1 MOL     -0.209200
     11 H1          2.4380   -0.1080   -1.9480 hc        1 MOL      0.052600
     12 H2          2.4630   -1.8880   -1.9910 hc        1 MOL      0.052600
     13 H3          0.9200   -1.0360   -2.0250 hc        1 MOL      0.052600
     14 H4          3.7650   -2.0800    0.0920 ha        1 MOL      0.143800
     15 H5          3.6840   -2.1160    2.5630 ha        1 MOL      0.147600
     16 H6          1.7790   -1.1020    3.7630 ha        1 MOL      0.170300
     17 H7          0.0020    0.0000   -0.0050 ha        1 MOL      0.170800
@<TRIPOS>BOND
     1    1    2 1   
     2    2    7 ar  
     3    2    3 ar  
     4    3    4 ar  
     5    4    5 ar  
     6    5    6 ar  
     7    6    7 ar  
     8    6    8 1   
     9    8    9 1   
    10    8   10 1   
    11    1   11 1   
    12    1   12 1   
    13    1   13 1   
    14    3   14 1   
    15    4   15 1   
    16    5   16 1   
    17    7   17 1   
@<TRIPOS>SUBSTRUCTURE
     1 MOL         1 TEMP              0 ****  ****    0 ROOT
