@<TRIPOS>MOLECULE
nonanal
   28    27     1     0     0
SMALL
No Charge or Current Charge


@<TRIPOS>ATOM
      1 C1         -0.9120    4.8980    0.7780 c3        1 MOL     -0.092200
      2 C2         -1.4580    3.4800    0.8530 c3        1 MOL     -0.079600
      3 C3         -0.5030    2.4800    0.2000 c3        1 MOL     -0.079200
      4 C4         -1.0080    1.0350    0.2490 c3        1 MOL     -0.077200
      5 C5         -0.0520    0.0340   -0.4040 c3        1 MOL     -0.078000
      6 C6         -0.6060   -1.3910   -0.3270 c3        1 MOL     -0.078500
      7 C7          0.3500   -2.3940   -0.9810 c3        1 MOL     -0.073800
      8 C8         -0.1750   -3.8250   -0.9190 c3        1 MOL     -0.200000
      9 C9          0.7420   -4.8440   -1.5550 c         1 MOL      0.564000
     10 O1          1.8180   -4.5870   -2.0830 o         1 MOL     -0.523400
     11 H1         -1.5990    5.6090    1.2470 hc        1 MOL      0.033100
     12 H2          0.0490    4.9620    1.2980 hc        1 MOL      0.033100
     13 H3         -0.7570    5.2040   -0.2620 hc        1 MOL      0.033100
     14 H4         -2.4330    3.4440    0.3550 hc        1 MOL      0.037700
     15 H5         -1.6180    3.2230    1.9050 hc        1 MOL      0.037700
     16 H6          0.4830    2.5420    0.6770 hc        1 MOL      0.039400
     17 H7         -0.3610    2.7560   -0.8530 hc        1 MOL      0.039400
     18 H8         -1.9760    0.9940   -0.2660 hc        1 MOL      0.038400
     19 H9         -1.1920    0.7460    1.2910 hc        1 MOL      0.038400
     20 H10         0.1070    0.3090   -1.4540 hc        1 MOL      0.041800
     21 H11         0.9230    0.0660    0.0930 hc        1 MOL      0.041800
     22 H12        -0.7730   -1.6580    0.7230 hc        1 MOL      0.037100
     23 H13        -1.5800   -1.4340   -0.8290 hc        1 MOL      0.037100
     24 H14         0.4820   -2.1190   -2.0340 hc        1 MOL      0.054400
     25 H15         1.3370   -2.3310   -0.5080 hc        1 MOL      0.054400
     26 H16        -0.3530   -4.1290    0.1180 hc        1 MOL      0.065800
     27 H17        -1.1290   -3.8870   -1.4540 hc        1 MOL      0.065800
     28 H18         0.3640   -5.8810   -1.5370 h4        1 MOL     -0.010500
@<TRIPOS>BOND
     1    1    2 1   
     2    2    3 1   
     3    3    4 1   
     4    4    5 1   
     5    5    6 1   
     6    6    7 1   
     7    7    8 1   
     8    8    9 1   
     9    9   10 2   
    10    1   11 1   
    11    1   12 1   
    12    1   13 1   
    13    2   14 1   
    14    2   15 1   
    15    3   16 1   
    16    3   17 1   
    17    4   18 1   
    18    4   19 1   
    19    5   20 1   
    20    5   21 1   
    21    6   22 1   
    22    6   23 1   
    23    7   24 1   
    24    7   25 1   
    25    8   26 1   
    26    8   27 1   
    27    9   28 1   
@<TRIPOS>SUBSTRUCTURE
     1 MOL         1 TEMP              0 ****  ****    0 ROOT
