@<TRIPOS>MOLECULE
penta-1,4-diene
   13    12     1     0     0
SMALL
No Charge or Current Charge


@<TRIPOS>ATOM
      1 C1          1.3370   -0.0830   -1.7940 c2        1 MOL     -0.220200
      2 C2          1.2060   -0.3030   -0.4800 c2        1 MOL     -0.158300
      3 C3         -0.0670   -0.7580    0.1700 c3        1 MOL     -0.027400
      4 C4         -0.5500    0.2290    1.1920 c2        1 MOL     -0.158300
      5 C5         -1.7340    0.8490    1.1320 c2        1 MOL     -0.220200
      6 H1          2.2870    0.2390   -2.2040 ha        1 MOL      0.111500
      7 H2          0.5060   -0.2180   -2.4770 ha        1 MOL      0.111500
      8 H3          2.0730   -0.1590    0.1590 ha        1 MOL      0.118300
      9 H4          0.1180   -1.7160    0.6700 hc        1 MOL      0.051000
     10 H5         -0.8420   -0.9460   -0.5830 hc        1 MOL      0.051000
     11 H6          0.1030    0.4380    2.0360 ha        1 MOL      0.118300
     12 H7         -2.0280    1.5480    1.9080 ha        1 MOL      0.111500
     13 H8         -2.4260    0.6720    0.3160 ha        1 MOL      0.111500
@<TRIPOS>BOND
     1    1    2 2   
     2    2    3 1   
     3    3    4 1   
     4    4    5 2   
     5    1    6 1   
     6    1    7 1   
     7    2    8 1   
     8    3    9 1   
     9    3   10 1   
    10    4   11 1   
    11    5   12 1   
    12    5   13 1   
@<TRIPOS>SUBSTRUCTURE
     1 MOL         1 TEMP              0 ****  ****    0 ROOT
