@<TRIPOS>MOLECULE
2-iodophenol
   13    13     1     0     0
SMALL
No Charge or Current Charge


@<TRIPOS>ATOM
      1 C1          1.8850   -1.0360   -0.1120 ca        1 MOL     -0.078600
      2 C2          2.9210   -1.6310    0.6080 ca        1 MOL     -0.169900
      3 C3          2.8780   -1.6520    2.0020 ca        1 MOL     -0.062700
      4 C4          1.8000   -1.0790    2.6760 ca        1 MOL     -0.063400
      5 C5          0.7640   -0.4840    1.9550 ca        1 MOL      0.163600
      6 C6          0.8070   -0.4630    0.5610 ca        1 MOL     -0.161800
      7 O1         -0.3080    0.0870    2.5750 oh        1 MOL     -0.491000
      8 I1          1.7840   -1.1380    4.7640 i         1 MOL     -0.143800
      9 H1          1.9180   -1.0200   -1.1980 ha        1 MOL      0.139000
     10 H2          3.7600   -2.0780    0.0830 ha        1 MOL      0.139100
     11 H3          3.6980   -2.1200    2.5420 ha        1 MOL      0.144800
     12 H4          0.0040   -0.0010   -0.0070 ha        1 MOL      0.154900
     13 H5         -0.2200    0.0060    3.5370 ho        1 MOL      0.429800
@<TRIPOS>BOND
     1    1    6 ar  
     2    1    2 ar  
     3    2    3 ar  
     4    3    4 ar  
     5    4    5 ar  
     6    5    6 ar  
     7    5    7 1   
     8    4    8 1   
     9    1    9 1   
    10    2   10 1   
    11    3   11 1   
    12    6   12 1   
    13    7   13 1   
@<TRIPOS>SUBSTRUCTURE
     1 MOL         1 TEMP              0 ****  ****    0 ROOT
