@<TRIPOS>MOLECULE
3-ethylphenol
   19    19     1     0     0
SMALL
No Charge or Current Charge


@<TRIPOS>ATOM
      1 C1          1.2660   -2.2410   -2.2080 c3        1 MOL     -0.089700
      2 C2          1.9310   -1.0140   -1.6030 c3        1 MOL     -0.041400
      3 C3          1.8850   -1.0360   -0.1120 ca        1 MOL     -0.043000
      4 C4          2.9210   -1.6310    0.6080 ca        1 MOL     -0.163000
      5 C5          2.8780   -1.6520    2.0020 ca        1 MOL     -0.089800
      6 C6          1.8000   -1.0790    2.6760 ca        1 MOL     -0.218600
      7 C7          0.7640   -0.4840    1.9550 ca        1 MOL      0.124800
      8 C8          0.8070   -0.4630    0.5610 ca        1 MOL     -0.155600
      9 O1         -0.2880    0.0760    2.6120 oh        1 MOL     -0.498400
     10 H1          1.3050   -2.2150   -3.3020 hc        1 MOL      0.037300
     11 H2          0.2150   -2.2890   -1.9070 hc        1 MOL      0.037300
     12 H3          1.7570   -3.1630   -1.8760 hc        1 MOL      0.037300
     13 H4          1.4400   -0.1060   -1.9740 hc        1 MOL      0.048400
     14 H5          2.9730   -0.9530   -1.9390 hc        1 MOL      0.048400
     15 H6          3.7650   -2.0800    0.0920 ha        1 MOL      0.133800
     16 H7          3.6850   -2.1150    2.5630 ha        1 MOL      0.131700
     17 H8          1.7720   -1.0980    3.7620 ha        1 MOL      0.132400
     18 H9         -0.0020    0.0010    0.0020 ha        1 MOL      0.150000
     19 H10        -0.1740   -0.0180    3.5710 ho        1 MOL      0.418000
@<TRIPOS>BOND
     1    1    2 1   
     2    2    3 1   
     3    3    8 ar  
     4    3    4 ar  
     5    4    5 ar  
     6    5    6 ar  
     7    6    7 ar  
     8    7    8 ar  
     9    7    9 1   
    10    1   10 1   
    11    1   11 1   
    12    1   12 1   
    13    2   13 1   
    14    2   14 1   
    15    4   15 1   
    16    5   16 1   
    17    6   17 1   
    18    8   18 1   
    19    9   19 1   
@<TRIPOS>SUBSTRUCTURE
     1 MOL         1 TEMP              0 ****  ****    0 ROOT
