@<TRIPOS>MOLECULE
2-benzhydryloxy-N,N-dimethyl-ethanamine
   40    41     1     0     0
SMALL
No Charge or Current Charge


@<TRIPOS>ATOM
      1 C1         -3.0310   -4.3990    0.7980 c3        1 MOL      0.138100
      2 N1         -2.9520   -3.6840    2.0710 n3        1 MOL     -0.704400
      3 C2         -4.0460   -2.7200    2.1850 c3        1 MOL      0.138100
      4 C3         -1.6610   -3.0090    2.1990 c3        1 MOL      0.147400
      5 C4         -0.5880   -4.0000    2.6330 c3        1 MOL      0.124000
      6 O1          0.6560   -3.3210    2.7500 os        1 MOL     -0.418500
      7 C5          1.6950   -4.2020    3.1540 c3        1 MOL      0.234500
      8 C6          2.2020   -5.0020    1.9680 ca        1 MOL     -0.094800
      9 C7          2.7130   -6.2860    2.1600 ca        1 MOL     -0.112100
     10 C8          3.1790   -7.0210    1.0700 ca        1 MOL     -0.132700
     11 C9          3.1360   -6.4720   -0.2120 ca        1 MOL     -0.126100
     12 C10         2.6250   -5.1880   -0.4030 ca        1 MOL     -0.132700
     13 C11         2.1590   -4.4530    0.6870 ca        1 MOL     -0.112100
     14 C12         2.8110   -3.4740    3.8860 ca        1 MOL     -0.094800
     15 C13         3.5530   -4.1370    4.8630 ca        1 MOL     -0.112100
     16 C14         4.5770   -3.4690    5.5350 ca        1 MOL     -0.132700
     17 C15         4.8580   -2.1380    5.2280 ca        1 MOL     -0.126100
     18 C16         4.1160   -1.4740    4.2510 ca        1 MOL     -0.132700
     19 C17         3.0920   -2.1430    3.5790 ca        1 MOL     -0.112100
     20 H1         -2.2110   -5.1170    0.7190 h1        1 MOL      0.034400
     21 H2         -2.9640   -3.6940   -0.0360 h1        1 MOL      0.034400
     22 H3         -3.9790   -4.9380    0.7260 h1        1 MOL      0.034400
     23 H4         -3.9620   -2.2060    3.1370 h1        1 MOL      0.034400
     24 H5         -4.9910   -3.2510    2.1320 h1        1 MOL      0.034400
     25 H6         -3.9750   -2.0080    1.3710 h1        1 MOL      0.034400
     26 H7         -1.7500   -2.1930    2.9320 h1        1 MOL      0.046300
     27 H8         -1.3870   -2.5710    1.2280 h1        1 MOL      0.046300
     28 H9         -0.4710   -4.7930    1.8890 h1        1 MOL      0.039900
     29 H10        -0.8350   -4.4510    3.6000 h1        1 MOL      0.039900
     30 H11         1.2160   -4.8980    3.8590 h1        1 MOL      0.050400
     31 H12         2.7510   -6.7210    3.1550 ha        1 MOL      0.136700
     32 H13         3.5770   -8.0210    1.2190 ha        1 MOL      0.131100
     33 H14         3.4990   -7.0440   -1.0600 ha        1 MOL      0.130900
     34 H15         2.5920   -4.7600   -1.4010 ha        1 MOL      0.131100
     35 H16         1.7620   -3.4540    0.5270 ha        1 MOL      0.136700
     36 H17         3.3390   -5.1740    5.1080 ha        1 MOL      0.136700
     37 H18         5.1540   -3.9850    6.2950 ha        1 MOL      0.131100
     38 H19         5.6560   -1.6170    5.7510 ha        1 MOL      0.130900
     39 H20         4.3360   -0.4380    4.0130 ha        1 MOL      0.131100
     40 H21         2.5200   -1.6180    2.8190 ha        1 MOL      0.136700
@<TRIPOS>BOND
     1    1    2 1   
     2    2    3 1   
     3    2    4 1   
     4    4    5 1   
     5    5    6 1   
     6    6    7 1   
     7    7    8 1   
     8    8   13 ar  
     9    8    9 ar  
    10    9   10 ar  
    11   10   11 ar  
    12   11   12 ar  
    13   12   13 ar  
    14    7   14 1   
    15   14   19 ar  
    16   14   15 ar  
    17   15   16 ar  
    18   16   17 ar  
    19   17   18 ar  
    20   18   19 ar  
    21    1   20 1   
    22    1   21 1   
    23    1   22 1   
    24    3   23 1   
    25    3   24 1   
    26    3   25 1   
    27    4   26 1   
    28    4   27 1   
    29    5   28 1   
    30    5   29 1   
    31    7   30 1   
    32    9   31 1   
    33   10   32 1   
    34   11   33 1   
    35   12   34 1   
    36   13   35 1   
    37   15   36 1   
    38   16   37 1   
    39   17   38 1   
    40   18   39 1   
    41   19   40 1   
@<TRIPOS>SUBSTRUCTURE
     1 MOL         1 TEMP              0 ****  ****    0 ROOT
