@<TRIPOS>MOLECULE
chlorobenzene
   12    12     1     0     0
SMALL
No Charge or Current Charge


@<TRIPOS>ATOM
      1 C1          1.8850   -1.0360   -0.1120 ca        1 MOL     -0.129400
      2 C2          2.9210   -1.6310    0.6080 ca        1 MOL     -0.121800
      3 C3          2.8780   -1.6520    2.0020 ca        1 MOL     -0.124500
      4 C4          1.8000   -1.0790    2.6760 ca        1 MOL      0.017700
      5 C5          0.7640   -0.4840    1.9550 ca        1 MOL     -0.124500
      6 C6          0.8070   -0.4630    0.5610 ca        1 MOL     -0.121800
      7 Cl1         1.7480   -1.1040    4.3960 cl        1 MOL     -0.097300
      8 H1          1.9180   -1.0200   -1.1980 ha        1 MOL      0.135300
      9 H2          3.7610   -2.0770    0.0830 ha        1 MOL      0.136700
     10 H3          3.6930   -2.1190    2.5500 ha        1 MOL      0.146500
     11 H4         -0.0830   -0.0330    2.4660 ha        1 MOL      0.146500
     12 H5          0.0000   -0.0000   -0.0000 ha        1 MOL      0.136700
@<TRIPOS>BOND
     1    1    6 ar  
     2    1    2 ar  
     3    2    3 ar  
     4    3    4 ar  
     5    4    5 ar  
     6    5    6 ar  
     7    4    7 1   
     8    1    8 1   
     9    2    9 1   
    10    3   10 1   
    11    5   11 1   
    12    6   12 1   
@<TRIPOS>SUBSTRUCTURE
     1 MOL         1 TEMP              0 ****  ****    0 ROOT
