@<TRIPOS>MOLECULE
4-ethylphenol
   19    19     1     0     0
SMALL
No Charge or Current Charge


@<TRIPOS>ATOM
      1 C1          1.2630   -2.2420   -2.2060 c3        1 MOL     -0.090000
      2 C2          1.9290   -1.0150   -1.6030 c3        1 MOL     -0.033800
      3 C3          1.8850   -1.0360   -0.1120 ca        1 MOL     -0.112400
      4 C4          2.9210   -1.6310    0.6080 ca        1 MOL     -0.092000
      5 C5          2.8780   -1.6520    2.0020 ca        1 MOL     -0.182800
      6 C6          1.8000   -1.0790    2.6760 ca        1 MOL      0.119700
      7 C7          0.7640   -0.4840    1.9550 ca        1 MOL     -0.182800
      8 C8          0.8070   -0.4630    0.5610 ca        1 MOL     -0.092000
      9 O1          1.7580   -1.1000    4.0360 oh        1 MOL     -0.498800
     10 H1          1.3010   -2.2170   -3.3000 hc        1 MOL      0.035800
     11 H2          0.2120   -2.2890   -1.9040 hc        1 MOL      0.035800
     12 H3          1.7530   -3.1640   -1.8740 hc        1 MOL      0.035800
     13 H4          1.4380   -0.1070   -1.9740 hc        1 MOL      0.045100
     14 H5          2.9710   -0.9550   -1.9400 hc        1 MOL      0.045100
     15 H6          3.7660   -2.0790    0.0920 ha        1 MOL      0.133700
     16 H7          3.6880   -2.1160    2.5580 ha        1 MOL      0.141000
     17 H8         -0.0790   -0.0350    2.4740 ha        1 MOL      0.141000
     18 H9         -0.0050    0.0030    0.0080 ha        1 MOL      0.133700
     19 H10         0.9510   -0.6650    4.3540 ho        1 MOL      0.417800
@<TRIPOS>BOND
     1    1    2 1   
     2    2    3 1   
     3    3    8 ar  
     4    3    4 ar  
     5    4    5 ar  
     6    5    6 ar  
     7    6    7 ar  
     8    7    8 ar  
     9    6    9 1   
    10    1   10 1   
    11    1   11 1   
    12    1   12 1   
    13    2   13 1   
    14    2   14 1   
    15    4   15 1   
    16    5   16 1   
    17    7   17 1   
    18    8   18 1   
    19    9   19 1   
@<TRIPOS>SUBSTRUCTURE
     1 MOL         1 TEMP              0 ****  ****    0 ROOT
