@<TRIPOS>MOLECULE
isopropyl
   17    16     1     0     0
SMALL
No Charge or Current Charge


@<TRIPOS>ATOM
      1 C1          1.0770    0.0500    0.1960 c3        1 MOL     -0.106200
      2 C2          1.3530    0.9190    1.4130 c3        1 MOL      0.138200
      3 C3          2.8430    1.0380    1.6980 c3        1 MOL     -0.106200
      4 O1          0.8120    2.2180    1.1940 os        1 MOL     -0.438900
      5 C4          0.3750    2.8740    2.3100 c         1 MOL      0.633400
      6 O2          0.4070    2.4480    3.4570 o         1 MOL     -0.543600
      7 C5         -0.1640    4.2200    1.9290 c3        1 MOL     -0.151000
      8 H1          0.0030   -0.0290    0.0000 hc        1 MOL      0.046200
      9 H2          1.5640    0.4690   -0.6910 hc        1 MOL      0.046200
     10 H3          1.4830   -0.9590    0.3310 hc        1 MOL      0.046200
     11 H4          0.8470    0.4960    2.2870 h1        1 MOL      0.069400
     12 H5          3.0310    1.6650    2.5750 hc        1 MOL      0.046200
     13 H6          3.3610    1.4750    0.8370 hc        1 MOL      0.046200
     14 H7          3.2910    0.0530    1.8680 hc        1 MOL      0.046200
     15 H8         -1.2320    4.1430    1.7100 hc        1 MOL      0.075900
     16 H9          0.3810    4.6060    1.0650 hc        1 MOL      0.075900
     17 H10        -0.0290    4.9140    2.7640 hc        1 MOL      0.075900
@<TRIPOS>BOND
     1    1    2 1   
     2    2    3 1   
     3    2    4 1   
     4    4    5 1   
     5    5    6 2   
     6    5    7 1   
     7    1    8 1   
     8    1    9 1   
     9    1   10 1   
    10    2   11 1   
    11    3   12 1   
    12    3   13 1   
    13    3   14 1   
    14    7   15 1   
    15    7   16 1   
    16    7   17 1   
@<TRIPOS>SUBSTRUCTURE
     1 MOL         1 TEMP              0 ****  ****    0 ROOT
