@<TRIPOS>MOLECULE
N-butyl-N-ethyl-2,6-dinitro-4-(trifluoromethyl)aniline
   39    39     1     0     0
SMALL
No Charge or Current Charge


@<TRIPOS>ATOM
      1 C1         -5.9010    4.6440    1.6640 c3        1 MOL     -0.093900
      2 C2         -4.6960    3.7220    1.5610 c3        1 MOL     -0.075500
      3 C3         -3.5860    4.1430    2.5260 c3        1 MOL     -0.107900
      4 C4         -2.3630    3.2360    2.4450 c3        1 MOL      0.238100
      5 N1         -1.3230    3.6340    3.3520 nh        1 MOL     -0.789000
      6 C5         -0.7510    4.9800    3.2250 c3        1 MOL      0.236500
      7 C6         -0.1370    5.1460    1.8890 c3        1 MOL     -0.124100
      8 C7         -0.8530    2.7750    4.3600 ca        1 MOL      0.300600
      9 C8          0.2100    1.9110    4.1000 ca        1 MOL     -0.175500
     10 C9          0.6760    1.0570    5.1000 ca        1 MOL     -0.015300
     11 C10         0.0790    1.0680    6.3600 ca        1 MOL     -0.173600
     12 C11        -0.9850    1.9320    6.6200 ca        1 MOL     -0.015300
     13 C12        -1.4510    2.7850    5.6200 ca        1 MOL     -0.175500
     14 N2         -2.5380    3.6560    5.9150 no        1 MOL      0.319100
     15 O1         -3.7070    3.2540    5.7110 o         1 MOL     -0.178700
     16 O2         -2.2920    4.7980    6.3690 o         1 MOL     -0.178700
     17 C13         0.5770    0.1560    7.4300 c3        1 MOL      0.694900
     18 F1          1.6210   -0.6320    7.0350 f         1 MOL     -0.224400
     19 F2          1.0260    0.8100    8.5410 f         1 MOL     -0.224400
     20 F3         -0.3830   -0.7060    7.8750 f         1 MOL     -0.224400
     21 N3          0.8410    1.8770    2.8240 no        1 MOL      0.319100
     22 O3          1.8160    2.6350    2.6120 o         1 MOL     -0.178700
     23 O4          0.4010    1.0920    1.9520 o         1 MOL     -0.178700
     24 H1         -6.6910    4.3370    0.9710 hc        1 MOL      0.036200
     25 H2         -6.3110    4.6200    2.6790 hc        1 MOL      0.036200
     26 H3         -5.6250    5.6780    1.4340 hc        1 MOL      0.036200
     27 H4         -5.0100    2.6950    1.7810 hc        1 MOL      0.041100
     28 H5         -4.3270    3.7350    0.5290 hc        1 MOL      0.041100
     29 H6         -3.2930    5.1800    2.3190 hc        1 MOL      0.054700
     30 H7         -3.9730    4.1160    3.5520 hc        1 MOL      0.054700
     31 H8         -1.9420    3.2260    1.4340 h1        1 MOL      0.052400
     32 H9         -2.6400    2.2100    2.7080 h1        1 MOL      0.052400
     33 H10        -1.5710    5.6730    3.3820 h1        1 MOL      0.051700
     34 H11        -0.0230    5.0760    4.0240 h1        1 MOL      0.051700
     35 H12         0.2970    6.1450    1.7700 hc        1 MOL      0.050300
     36 H13         0.6360    4.3920    1.7070 hc        1 MOL      0.050300
     37 H14        -0.9160    5.0240    1.1260 hc        1 MOL      0.050300
     38 H15         1.5070    0.3820    4.9030 ha        1 MOL      0.183000
     39 H16        -1.4480    1.9350    7.6050 ha        1 MOL      0.183000
@<TRIPOS>BOND
     1    1    2 1   
     2    2    3 1   
     3    3    4 1   
     4    4    5 1   
     5    5    6 1   
     6    6    7 1   
     7    5    8 1   
     8    8   13 ar  
     9    8    9 ar  
    10    9   10 ar  
    11   10   11 ar  
    12   11   12 ar  
    13   12   13 ar  
    14   13   14 1   
    15   14   15 1   
    16   14   16 1   
    17   11   17 1   
    18   17   18 1   
    19   17   19 1   
    20   17   20 1   
    21    9   21 1   
    22   21   22 1   
    23   21   23 1   
    24    1   24 1   
    25    1   25 1   
    26    1   26 1   
    27    2   27 1   
    28    2   28 1   
    29    3   29 1   
    30    3   30 1   
    31    4   31 1   
    32    4   32 1   
    33    6   33 1   
    34    6   34 1   
    35    7   35 1   
    36    7   36 1   
    37    7   37 1   
    38   10   38 1   
    39   12   39 1   
@<TRIPOS>SUBSTRUCTURE
     1 MOL         1 TEMP              0 ****  ****    0 ROOT
