@<TRIPOS>MOLECULE
ethyl
   17    16     1     0     0
SMALL
No Charge or Current Charge


@<TRIPOS>ATOM
      1 C1         -0.8710    0.5470    0.3730 c3        1 MOL     -0.092900
      2 C2         -0.8820    0.5510    1.8920 c3        1 MOL     -0.132700
      3 C3         -2.0710    1.2980    2.4500 c         1 MOL      0.636000
      4 O1         -2.9380    1.8440    1.7810 o         1 MOL     -0.533000
      5 O2         -2.0160    1.2610    3.8140 os        1 MOL     -0.450500
      6 C4         -3.0830    1.9320    4.4930 c3        1 MOL      0.137700
      7 C5         -2.8690    1.7950    5.9810 c3        1 MOL     -0.132800
      8 H1         -0.0030    0.0020   -0.0120 hc        1 MOL      0.047100
      9 H2         -1.7760    0.0670   -0.0130 hc        1 MOL      0.047100
     10 H3         -0.8290    1.5670   -0.0220 hc        1 MOL      0.047100
     11 H4          0.0310    1.0310    2.2600 hc        1 MOL      0.076600
     12 H5         -0.9180   -0.4810    2.2570 hc        1 MOL      0.076600
     13 H6         -3.0740    2.9790    4.1910 h1        1 MOL      0.063800
     14 H7         -4.0230    1.4700    4.1890 h1        1 MOL      0.063800
     15 H8         -3.6690    2.2980    6.5310 hc        1 MOL      0.048700
     16 H9         -2.8450    0.7410    6.2770 hc        1 MOL      0.048700
     17 H10        -1.9090    2.2310    6.2780 hc        1 MOL      0.048700
@<TRIPOS>BOND
     1    1    2 1   
     2    2    3 1   
     3    3    4 2   
     4    3    5 1   
     5    5    6 1   
     6    6    7 1   
     7    1    8 1   
     8    1    9 1   
     9    1   10 1   
    10    2   11 1   
    11    2   12 1   
    12    6   13 1   
    13    6   14 1   
    14    7   15 1   
    15    7   16 1   
    16    7   17 1   
@<TRIPOS>SUBSTRUCTURE
     1 MOL         1 TEMP              0 ****  ****    0 ROOT
