@<TRIPOS>MOLECULE
pyridine-4-carbonitrile
   12    12     1     0     0
SMALL
No Charge or Current Charge


@<TRIPOS>ATOM
      1 C1          0.2270   -0.4200    0.9730 ca        1 MOL     -0.210700
      2 C2         -0.6320   -1.3220    1.5800 ca        1 MOL      0.393300
      3 N1         -0.4090   -1.8820    2.7910 nb        1 MOL     -0.646700
      4 C3          0.7300   -1.5160    3.4210 ca        1 MOL      0.393300
      5 C4          1.6520   -0.6230    2.9000 ca        1 MOL     -0.210700
      6 C5          1.3880   -0.0680    1.6520 ca        1 MOL      0.024000
      7 C6          2.3060    0.8580    1.0690 cg        1 MOL      0.225100
      8 N2          3.0530    1.6120    0.5950 n1        1 MOL     -0.343900
      9 H1         -0.0130   -0.0080   -0.0020 ha        1 MOL      0.156900
     10 H2         -1.5510   -1.6290    1.0930 h4        1 MOL      0.031300
     11 H3          0.8890   -1.9760    4.3910 h4        1 MOL      0.031300
     12 H4          2.5480   -0.3730    3.4590 ha        1 MOL      0.156900
@<TRIPOS>BOND
     1    1    6 ar  
     2    1    2 ar  
     3    2    3 ar  
     4    3    4 ar  
     5    4    5 ar  
     6    5    6 ar  
     7    6    7 1   
     8    7    8 3   
     9    1    9 1   
    10    2   10 1   
    11    4   11 1   
    12    5   12 1   
@<TRIPOS>SUBSTRUCTURE
     1 MOL         1 TEMP              0 ****  ****    0 ROOT
