@<TRIPOS>MOLECULE
2-bromo-2-methyl-propane
   14    13     1     0     0
SMALL
No Charge or Current Charge


@<TRIPOS>ATOM
      1 C1          0.2700   -1.1200    0.8960 c3        1 MOL     -0.093600
      2 C2          0.0170    0.2360    0.2410 c3        1 MOL      0.052200
      3 C3         -1.3790    0.2970   -0.3750 c3        1 MOL     -0.093600
      4 C4          1.0910    0.5550   -0.7950 c3        1 MOL     -0.093600
      5 Br1         0.1130    1.6120    1.6510 br        1 MOL     -0.206600
      6 H1          1.2700   -1.1720    1.3410 hc        1 MOL      0.048400
      7 H2         -0.4550   -1.3240    1.6940 hc        1 MOL      0.048400
      8 H3          0.1910   -1.9300    0.1620 hc        1 MOL      0.048400
      9 H4         -1.5690    1.2680   -0.8480 hc        1 MOL      0.048400
     10 H5         -1.5150   -0.4730   -1.1430 hc        1 MOL      0.048400
     11 H6         -2.1510    0.1440    0.3880 hc        1 MOL      0.048400
     12 H7          0.9160    1.5280   -1.2700 hc        1 MOL      0.048400
     13 H8          1.1200   -0.1980   -1.5910 hc        1 MOL      0.048400
     14 H9          2.0840    0.5860   -0.3320 hc        1 MOL      0.048400
@<TRIPOS>BOND
     1    1    2 1   
     2    2    3 1   
     3    2    4 1   
     4    2    5 1   
     5    1    6 1   
     6    1    7 1   
     7    1    8 1   
     8    3    9 1   
     9    3   10 1   
    10    3   11 1   
    11    4   12 1   
    12    4   13 1   
    13    4   14 1   
@<TRIPOS>SUBSTRUCTURE
     1 MOL         1 TEMP              0 ****  ****    0 ROOT
