@<TRIPOS>MOLECULE
2-methoxy-2-methyl-propane
   18    17     1     0     0
SMALL
No Charge or Current Charge


@<TRIPOS>ATOM
      1 C1         -0.4650   -0.0650    0.9890 c3        1 MOL     -0.107900
      2 C2          0.5610   -0.3990    2.0720 c3        1 MOL      0.147200
      3 C3          1.6270    0.6910    2.1570 c3        1 MOL     -0.107900
      4 C4          1.2040   -1.7600    1.8120 c3        1 MOL     -0.107900
      5 O1         -0.1080   -0.4450    3.3330 os        1 MOL     -0.417700
      6 C5         -1.1270   -1.4330    3.3390 c3        1 MOL      0.116500
      7 H1         -1.2320   -0.8450    0.9250 hc        1 MOL      0.042800
      8 H2         -0.9580    0.8930    1.1830 hc        1 MOL      0.042800
      9 H3          0.0100   -0.0160    0.0030 hc        1 MOL      0.042800
     10 H4          2.3650    0.4550    2.9320 hc        1 MOL      0.042800
     11 H5          1.1820    1.6520    2.4370 hc        1 MOL      0.042800
     12 H6          2.1530    0.8170    1.2050 hc        1 MOL      0.042800
     13 H7          1.9390   -2.0000    2.5880 hc        1 MOL      0.042800
     14 H8          0.4570   -2.5600    1.7840 hc        1 MOL      0.042800
     15 H9          1.7480   -1.7590    0.8600 hc        1 MOL      0.042800
     16 H10        -1.6160   -1.4420    4.3150 h1        1 MOL      0.031000
     17 H11        -0.6850   -2.4090    3.1300 h1        1 MOL      0.031000
     18 H12        -1.8580   -1.1900    2.5660 h1        1 MOL      0.031000
@<TRIPOS>BOND
     1    1    2 1   
     2    2    3 1   
     3    2    4 1   
     4    2    5 1   
     5    5    6 1   
     6    1    7 1   
     7    1    8 1   
     8    1    9 1   
     9    3   10 1   
    10    3   11 1   
    11    3   12 1   
    12    4   13 1   
    13    4   14 1   
    14    4   15 1   
    15    6   16 1   
    16    6   17 1   
    17    6   18 1   
@<TRIPOS>SUBSTRUCTURE
     1 MOL         1 TEMP              0 ****  ****    0 ROOT
