@<TRIPOS>MOLECULE
3-nitrophenol
   15    15     1     0     0
SMALL
No Charge or Current Charge


@<TRIPOS>ATOM
      1 C1          1.8850   -1.0360   -0.1120 ca        1 MOL     -0.100400
      2 C2          2.9210   -1.6310    0.6080 ca        1 MOL     -0.106100
      3 C3          2.8780   -1.6520    2.0020 ca        1 MOL     -0.140300
      4 C4          1.8000   -1.0790    2.6760 ca        1 MOL     -0.097600
      5 C5          0.7640   -0.4840    1.9550 ca        1 MOL      0.119000
      6 C6          0.8070   -0.4630    0.5610 ca        1 MOL     -0.175400
      7 O1         -0.2890    0.0750    2.6110 oh        1 MOL     -0.486200
      8 N1          3.9330   -2.2570    2.7360 no        1 MOL      0.310900
      9 O2          3.8750   -2.2650    3.9890 o         1 MOL     -0.203700
     10 O3          4.8940   -2.7670    2.1100 o         1 MOL     -0.203700
     11 H1          1.9190   -1.0200   -1.1980 ha        1 MOL      0.149500
     12 H2          3.7560   -2.0740    0.0710 ha        1 MOL      0.174300
     13 H3          1.7600   -1.0910    3.7630 ha        1 MOL      0.187800
     14 H4          0.0030   -0.0010   -0.0060 ha        1 MOL      0.145400
     15 H5         -0.9230    0.4450    1.9770 ho        1 MOL      0.426300
@<TRIPOS>BOND
     1    1    6 ar  
     2    1    2 ar  
     3    2    3 ar  
     4    3    4 ar  
     5    4    5 ar  
     6    5    6 ar  
     7    5    7 1   
     8    3    8 1   
     9    8    9 1   
    10    8   10 1   
    11    1   11 1   
    12    2   12 1   
    13    4   13 1   
    14    6   14 1   
    15    7   15 1   
@<TRIPOS>SUBSTRUCTURE
     1 MOL         1 TEMP              0 ****  ****    0 ROOT
