@<TRIPOS>MOLECULE
1,3,7-trimethylpurine-2,6-dione
   24    25     1     0     0
SMALL
No Charge or Current Charge


@<TRIPOS>ATOM
      1 C1          6.0480    2.9530   -1.7310 c3        1 MOL      0.014300
      2 N1          4.9730    2.0840   -1.3170 na        1 MOL     -0.148300
      3 C2          5.1110    0.7770   -0.9260 cc        1 MOL      0.438800
      4 N2          3.9560    0.2330   -0.6040 nd        1 MOL     -0.683600
      5 C3          3.0450    1.2360   -0.7980 cd        1 MOL      0.484500
      6 C4          3.6440    2.3850   -1.2370 cc        1 MOL     -0.345700
      7 C5          2.9520    3.5990   -1.5260 c         1 MOL      0.762700
      8 O1          3.5080    4.6220   -1.9180 o         1 MOL     -0.628200
      9 N3          1.5560    3.4680   -1.3040 n         1 MOL     -0.482700
     10 C6          0.8630    2.2900   -0.8430 c         1 MOL      0.812000
     11 O2         -0.3620    2.2780   -0.6780 o         1 MOL     -0.637400
     12 N4          1.6740    1.1550   -0.5930 n         1 MOL     -0.415100
     13 C7          1.0740   -0.0870   -0.1240 c3        1 MOL      0.089700
     14 C8          0.7180    4.6350   -1.5590 c3        1 MOL      0.080200
     15 H1          6.4290    3.4650   -0.8430 h1        1 MOL      0.069000
     16 H2          6.8380    2.3590   -2.1980 h1        1 MOL      0.069000
     17 H3          5.6680    3.6770   -2.4570 h1        1 MOL      0.069000
     18 H4          6.0710    0.2800   -0.8980 h5        1 MOL      0.070900
     19 H5          0.8000   -0.6950   -0.9820 h1        1 MOL      0.063200
     20 H6          0.1880    0.1420    0.4620 h1        1 MOL      0.063200
     21 H7          1.7920   -0.6220    0.4910 h1        1 MOL      0.063200
     22 H8          0.3880    4.6140   -2.5940 h1        1 MOL      0.063700
     23 H9          1.2950    5.5350   -1.3750 h1        1 MOL      0.063700
     24 H10        -0.1430    4.6070   -0.8970 h1        1 MOL      0.063700
@<TRIPOS>BOND
     1    1    2 1   
     2    2    6 1   
     3    2    3 1   
     4    3    4 2   
     5    4    5 1   
     6    5   12 1   
     7    5    6 2   
     8    6    7 1   
     9    7    8 2   
    10    7    9 1   
    11    9   10 1   
    12   10   11 2   
    13   10   12 1   
    14   12   13 1   
    15    9   14 1   
    16    1   15 1   
    17    1   16 1   
    18    1   17 1   
    19    3   18 1   
    20   13   19 1   
    21   13   20 1   
    22   13   21 1   
    23   14   22 1   
    24   14   23 1   
    25   14   24 1   
@<TRIPOS>SUBSTRUCTURE
     1 MOL         1 TEMP              0 ****  ****    0 ROOT
