@<TRIPOS>MOLECULE
1,2,3,4-tetrachloro-5-phenyl-benzene
   22    23     1     0     0
SMALL
No Charge or Current Charge


@<TRIPOS>ATOM
      1 C1          1.8850   -1.0360   -0.1120 ca        1 MOL     -0.119600
      2 C2          2.9210   -1.6310    0.6080 ca        1 MOL     -0.130500
      3 C3          2.8780   -1.6520    2.0020 ca        1 MOL     -0.104300
      4 C4          1.8000   -1.0790    2.6760 cp        1 MOL     -0.059900
      5 C5          0.7640   -0.4840    1.9550 ca        1 MOL     -0.104300
      6 C6          0.8070   -0.4630    0.5610 ca        1 MOL     -0.130500
      7 C7          1.7550   -1.1010    4.1220 cp        1 MOL     -0.016400
      8 C8          1.1390   -2.1910    4.7360 ca        1 MOL     -0.100900
      9 C9          1.0690   -2.2610    6.1270 ca        1 MOL      0.020400
     10 C10         1.6160   -1.2400    6.9040 ca        1 MOL      0.022600
     11 C11         2.2320   -0.1490    6.2900 ca        1 MOL      0.019600
     12 C12         2.3010   -0.0800    4.8990 ca        1 MOL      0.032700
     13 Cl1         3.0620    1.2750    4.1120 cl        1 MOL     -0.045200
     14 Cl2         2.9140    1.1270    7.2600 cl        1 MOL     -0.039600
     15 Cl3         1.5210   -1.3400    8.6400 cl        1 MOL     -0.039700
     16 Cl4         0.2920   -3.6460    6.8140 cl        1 MOL     -0.055600
     17 H1          1.9170   -1.0210   -1.1980 ha        1 MOL      0.133500
     18 H2          3.7600   -2.0790    0.0840 ha        1 MOL      0.136100
     19 H3          3.6930   -2.1200    2.5500 ha        1 MOL      0.140200
     20 H4         -0.0840   -0.0330    2.4660 ha        1 MOL      0.140200
     21 H5         -0.0010   -0.0020    0.0000 ha        1 MOL      0.136100
     22 H6          0.7150   -2.9890    4.1290 ha        1 MOL      0.165100
@<TRIPOS>BOND
     1    1    6 ar  
     2    1    2 ar  
     3    2    3 ar  
     4    3    4 ar  
     5    4    5 ar  
     6    5    6 ar  
     7    4    7 1   
     8    7   12 ar  
     9    7    8 ar  
    10    8    9 ar  
    11    9   10 ar  
    12   10   11 ar  
    13   11   12 ar  
    14   12   13 1   
    15   11   14 1   
    16   10   15 1   
    17    9   16 1   
    18    1   17 1   
    19    2   18 1   
    20    3   19 1   
    21    5   20 1   
    22    6   21 1   
    23    8   22 1   
@<TRIPOS>SUBSTRUCTURE
     1 MOL         1 TEMP              0 ****  ****    0 ROOT
