@<TRIPOS>MOLECULE
3-hydroxybenzaldehyde
   15    15     1     0     0
SMALL
No Charge or Current Charge


@<TRIPOS>ATOM
      1 C1          1.8850   -1.0360   -0.1120 ca        1 MOL     -0.106600
      2 C2          2.9210   -1.6310    0.6080 ca        1 MOL     -0.106800
      3 C3          2.8780   -1.6520    2.0020 ca        1 MOL     -0.164600
      4 C4          1.8000   -1.0790    2.6760 ca        1 MOL     -0.115700
      5 C5          0.7640   -0.4840    1.9550 ca        1 MOL      0.110500
      6 C6          0.8070   -0.4630    0.5610 ca        1 MOL     -0.183600
      7 O1         -0.2880    0.0750    2.6120 oh        1 MOL     -0.496800
      8 C7          3.9590   -2.2700    2.7540 c         1 MOL      0.575400
      9 O2          4.9400   -2.7920    2.2170 o         1 MOL     -0.523700
     10 H1          1.9190   -1.0200   -1.1980 ha        1 MOL      0.139300
     11 H2          3.7570   -2.0750    0.0740 ha        1 MOL      0.157500
     12 H3          1.7610   -1.0930    3.7630 ha        1 MOL      0.152800
     13 H4          0.0020   -0.0020   -0.0060 ha        1 MOL      0.138100
     14 H5         -0.9230    0.4460    1.9780 ho        1 MOL      0.421600
     15 H6          3.8800   -2.2630    3.8630 h4        1 MOL      0.002600
@<TRIPOS>BOND
     1    1    6 ar  
     2    1    2 ar  
     3    2    3 ar  
     4    3    4 ar  
     5    4    5 ar  
     6    5    6 ar  
     7    5    7 1   
     8    3    8 1   
     9    8    9 2   
    10    1   10 1   
    11    2   11 1   
    12    4   12 1   
    13    6   13 1   
    14    7   14 1   
    15    8   15 1   
@<TRIPOS>SUBSTRUCTURE
     1 MOL         1 TEMP              0 ****  ****    0 ROOT
