@<TRIPOS>MOLECULE
1,2,4,5-tetrachlorobenzene
   12    12     1     0     0
SMALL
No Charge or Current Charge


@<TRIPOS>ATOM
      1 C1          1.8850   -1.0360   -0.1120 ca        1 MOL     -0.108100
      2 C2          2.9210   -1.6310    0.6080 ca        1 MOL      0.022400
      3 C3          2.8780   -1.6520    2.0020 ca        1 MOL      0.022400
      4 C4          1.8000   -1.0790    2.6760 ca        1 MOL     -0.108000
      5 C5          0.7640   -0.4840    1.9550 ca        1 MOL      0.022400
      6 C6          0.8070   -0.4630    0.5610 ca        1 MOL      0.022400
      7 Cl1        -0.4460    0.2590   -0.3870 cl        1 MOL     -0.053300
      8 Cl2        -0.5450    0.2090    2.8470 cl        1 MOL     -0.053300
      9 Cl3         4.1310   -2.3740    2.9500 cl        1 MOL     -0.053300
     10 Cl4         4.2300   -2.3240   -0.2830 cl        1 MOL     -0.053300
     11 H1          1.9190   -1.0190   -1.2000 ha        1 MOL      0.169800
     12 H2          1.7660   -1.0950    3.7630 ha        1 MOL      0.169800
@<TRIPOS>BOND
     1    1    6 ar  
     2    1    2 ar  
     3    2    3 ar  
     4    3    4 ar  
     5    4    5 ar  
     6    5    6 ar  
     7    6    7 1   
     8    5    8 1   
     9    3    9 1   
    10    2   10 1   
    11    1   11 1   
    12    4   12 1   
@<TRIPOS>SUBSTRUCTURE
     1 MOL         1 TEMP              0 ****  ****    0 ROOT
