@<TRIPOS>MOLECULE
methyl
   15    15     1     0     0
SMALL
No Charge or Current Charge


@<TRIPOS>ATOM
      1 C1         -3.6260    0.6760    2.2600 c3        1 MOL      0.125400
      2 O1         -2.6770    0.5470    1.1960 os        1 MOL     -0.437600
      3 C2         -1.8730   -0.5520    1.2580 c         1 MOL      0.657500
      4 O2         -1.8930   -1.4180    2.1230 o         1 MOL     -0.536500
      5 C3         -0.9370   -0.5550    0.0880 cx        1 MOL     -0.190100
      6 C4          0.3320    0.2160    0.1980 cx        1 MOL     -0.107800
      7 C5          0.3560   -1.2830    0.2190 cx        1 MOL     -0.107800
      8 H1         -4.2160    1.5850    2.1150 h1        1 MOL      0.049800
      9 H2         -3.0990    0.7190    3.2160 h1        1 MOL      0.049800
     10 H3         -4.2900   -0.1920    2.2500 h1        1 MOL      0.049800
     11 H4         -1.4460   -0.5770   -0.8560 hc        1 MOL      0.114400
     12 H5          0.7360    0.7130   -0.6750 hc        1 MOL      0.083300
     13 H6          0.5090    0.7370    1.1310 hc        1 MOL      0.083300
     14 H7          0.7760   -1.7920   -0.6400 hc        1 MOL      0.083300
     15 H8          0.5480   -1.7710    1.1670 hc        1 MOL      0.083300
@<TRIPOS>BOND
     1    1    2 1   
     2    2    3 1   
     3    3    4 2   
     4    3    5 1   
     5    5    7 1   
     6    5    6 1   
     7    6    7 1   
     8    1    8 1   
     9    1    9 1   
    10    1   10 1   
    11    5   11 1   
    12    6   12 1   
    13    6   13 1   
    14    7   14 1   
    15    7   15 1   
@<TRIPOS>SUBSTRUCTURE
     1 MOL         1 TEMP              0 ****  ****    0 ROOT
