@<TRIPOS>MOLECULE
6-chloro-1H-pyrimidine-2,4-dione
   12    12     1     0     0
SMALL
No Charge or Current Charge


@<TRIPOS>ATOM
      1 C1         -0.7220    0.6820    0.9950 cc        1 MOL     -0.300000
      2 C2         -0.7260   -0.8010    1.0050 c         1 MOL      0.714000
      3 O1         -1.3470   -1.4210    1.8630 o         1 MOL     -0.596100
      4 N1          0.0110   -1.3960   -0.0120 n         1 MOL     -0.585100
      5 C3          0.7320   -0.7290   -1.0080 c         1 MOL      0.813000
      6 O2          1.3650   -1.3220   -1.8810 o         1 MOL     -0.625500
      7 N2          0.6700    0.6550   -0.9270 n         1 MOL     -0.476900
      8 C4         -0.0330    1.3120    0.0420 cd        1 MOL      0.189400
      9 Cl1         0.0490    3.0190   -0.0760 cl        1 MOL     -0.047500
     10 H1         -1.2800    1.2020    1.7640 ha        1 MOL      0.193100
     11 H2          0.0280   -2.4110   -0.0330 hn        1 MOL      0.358500
     12 H3          1.1710    1.2040   -1.6200 hn        1 MOL      0.363100
@<TRIPOS>BOND
     1    1    8 2   
     2    1    2 1   
     3    2    3 2   
     4    2    4 1   
     5    4    5 1   
     6    5    6 2   
     7    5    7 1   
     8    7    8 1   
     9    8    9 1   
    10    1   10 1   
    11    4   11 1   
    12    7   12 1   
@<TRIPOS>SUBSTRUCTURE
     1 MOL         1 TEMP              0 ****  ****    0 ROOT
