@<TRIPOS>MOLECULE
2,3,7,8-tetrachlorodibenzo-p-dioxin
   22    24     1     0     0
SMALL
No Charge or Current Charge


@<TRIPOS>ATOM
      1 C1         -1.4370   -1.5820    0.2690 ca        1 MOL     -0.106400
      2 C2         -2.7270   -1.9050    0.6890 ca        1 MOL      0.070900
      3 C3         -3.5800   -0.9100    1.1630 ca        1 MOL      0.070900
      4 C4         -3.1490    0.4150    1.2200 ca        1 MOL     -0.106300
      5 C5         -1.8580    0.7400    0.8000 ca        1 MOL      0.020100
      6 C6         -1.0040   -0.2570    0.3260 ca        1 MOL      0.020100
      7 Cl1         0.6050    0.0880   -0.2070 cl        1 MOL     -0.053000
      8 Cl2        -1.3750    2.3980    0.8940 cl        1 MOL     -0.053000
      9 O1         -4.8560   -1.1830    1.5850 os        1 MOL     -0.212800
     10 C7         -5.2390   -2.4980    1.5120 ca        1 MOL      0.070900
     11 C8         -6.5290   -2.8210    1.9320 ca        1 MOL     -0.106300
     12 C9         -6.9620   -4.1460    1.8750 ca        1 MOL      0.020100
     13 C10        -6.1070   -5.1430    1.4010 ca        1 MOL      0.020100
     14 C11        -4.8170   -4.8180    0.9820 ca        1 MOL     -0.106300
     15 C12        -4.3860   -3.4940    1.0380 ca        1 MOL      0.070900
     16 O2         -3.1090   -3.2200    0.6160 os        1 MOL     -0.212800
     17 Cl3        -6.5900   -6.8010    1.3090 cl        1 MOL     -0.053000
     18 Cl4        -8.5700   -4.4910    2.4080 cl        1 MOL     -0.053000
     19 H1         -0.7790   -2.3670   -0.0970 ha        1 MOL      0.174800
     20 H2         -3.8220    1.1840    1.5920 ha        1 MOL      0.174800
     21 H3         -7.1860   -2.0380    2.3010 ha        1 MOL      0.174800
     22 H4         -4.1440   -5.5880    0.6100 ha        1 MOL      0.174800
@<TRIPOS>BOND
     1    1    6 ar  
     2    1    2 ar  
     3    2   16 1   
     4    2    3 ar  
     5    3    4 ar  
     6    4    5 ar  
     7    5    6 ar  
     8    6    7 1   
     9    5    8 1   
    10    3    9 1   
    11    9   10 1   
    12   10   15 ar  
    13   10   11 ar  
    14   11   12 ar  
    15   12   13 ar  
    16   13   14 ar  
    17   14   15 ar  
    18   15   16 1   
    19   13   17 1   
    20   12   18 1   
    21    1   19 1   
    22    4   20 1   
    23   11   21 1   
    24   14   22 1   
@<TRIPOS>SUBSTRUCTURE
     1 MOL         1 TEMP              0 ****  ****    0 ROOT
