@<TRIPOS>MOLECULE
4-fluorophenol
   13    13     1     0     0
SMALL
No Charge or Current Charge


@<TRIPOS>ATOM
      1 C1          1.8850   -1.0360   -0.1120 ca        1 MOL     -0.161800
      2 C2          2.9210   -1.6310    0.6080 ca        1 MOL     -0.128500
      3 C3          2.8780   -1.6520    2.0020 ca        1 MOL      0.088400
      4 C4          1.8000   -1.0790    2.6760 ca        1 MOL     -0.128500
      5 C5          0.7640   -0.4840    1.9550 ca        1 MOL     -0.161800
      6 C6          0.8070   -0.4630    0.5610 ca        1 MOL      0.111000
      7 O1         -0.2050    0.1170   -0.1410 oh        1 MOL     -0.494200
      8 F1          3.8730   -2.2230    2.6940 f         1 MOL     -0.141500
      9 H1          1.9240   -1.0240   -1.1980 ha        1 MOL      0.147700
     10 H2          3.7600   -2.0780    0.0840 ha        1 MOL      0.150400
     11 H3          1.7670   -1.0960    3.7610 ha        1 MOL      0.150400
     12 H4         -0.0740   -0.0400    2.4850 ha        1 MOL      0.147700
     13 H5         -0.0330    0.0520   -1.0940 ho        1 MOL      0.420900
@<TRIPOS>BOND
     1    1    6 ar  
     2    1    2 ar  
     3    2    3 ar  
     4    3    4 ar  
     5    4    5 ar  
     6    5    6 ar  
     7    6    7 1   
     8    3    8 1   
     9    1    9 1   
    10    2   10 1   
    11    4   11 1   
    12    5   12 1   
    13    7   13 1   
@<TRIPOS>SUBSTRUCTURE
     1 MOL         1 TEMP              0 ****  ****    0 ROOT
