@<TRIPOS>MOLECULE
dimethoxymethane
   13    12     1     0     0
SMALL
No Charge or Current Charge


@<TRIPOS>ATOM
      1 C1          1.1080    0.1080    0.0300 c3        1 MOL      0.119100
      2 O1          1.3910    1.5000    0.0860 os        1 MOL     -0.445900
      3 C2          2.7630    1.7600    0.3810 c3        1 MOL      0.313200
      4 O2          3.6770    1.2210   -0.5730 os        1 MOL     -0.445900
      5 C3          3.7840    2.0340   -1.7340 c3        1 MOL      0.119100
      6 H1          0.0500   -0.0410   -0.1980 h1        1 MOL      0.036500
      7 H2          1.3530   -0.3530    0.9910 h1        1 MOL      0.036500
      8 H3          1.7150   -0.3480   -0.7550 h1        1 MOL      0.036500
      9 H4          2.8990    2.8460    0.4470 h2        1 MOL      0.060800
     10 H5          3.0120    1.3460    1.3650 h2        1 MOL      0.060800
     11 H6          4.4920    1.5790   -2.4280 h1        1 MOL      0.036500
     12 H7          4.1230    3.0300   -1.4460 h1        1 MOL      0.036500
     13 H8          2.8030    2.1030   -2.2050 h1        1 MOL      0.036500
@<TRIPOS>BOND
     1    1    2 1   
     2    2    3 1   
     3    3    4 1   
     4    4    5 1   
     5    1    6 1   
     6    1    7 1   
     7    1    8 1   
     8    3    9 1   
     9    3   10 1   
    10    5   11 1   
    11    5   12 1   
    12    5   13 1   
@<TRIPOS>SUBSTRUCTURE
     1 MOL         1 TEMP              0 ****  ****    0 ROOT
