@<TRIPOS>MOLECULE
iodoethane
    8     7     1     0     0
SMALL
No Charge or Current Charge


@<TRIPOS>ATOM
      1 C1          0.1450   -0.6960    0.8340 c3        1 MOL     -0.092200
      2 C2          1.4100   -0.3750    1.6100 c3        1 MOL      0.070500
      3 I1          3.1270   -0.5150    0.3560 i         1 MOL     -0.257200
      4 H1         -0.7290   -0.6200    1.4900 hc        1 MOL      0.045800
      5 H2         -0.0000    0.0000    0.0000 hc        1 MOL      0.045800
      6 H3          0.1720   -1.7120    0.4270 hc        1 MOL      0.045800
      7 H4          1.5090   -1.0690    2.4520 h1        1 MOL      0.070800
      8 H5          1.3370    0.6350    2.0280 h1        1 MOL      0.070800
@<TRIPOS>BOND
     1    1    2 1   
     2    2    3 1   
     3    1    4 1   
     4    1    5 1   
     5    1    6 1   
     6    2    7 1   
     7    2    8 1   
@<TRIPOS>SUBSTRUCTURE
     1 MOL         1 TEMP              0 ****  ****    0 ROOT
