@<TRIPOS>MOLECULE
ethyl
   11    10     1     0     0
SMALL
No Charge or Current Charge


@<TRIPOS>ATOM
      1 C1          1.0620   -0.2680   -0.0010 c3        1 MOL     -0.099400
      2 C2          1.9100    0.9130   -0.4220 c3        1 MOL      0.132400
      3 O1          1.5170    1.3240   -1.7230 os        1 MOL     -0.447600
      4 C3          2.1980    2.3850   -2.2390 c         1 MOL      0.628800
      5 O2          3.1000    3.0130   -1.7070 o         1 MOL     -0.539500
      6 H1          1.3390   -0.6110    1.0000 hc        1 MOL      0.048200
      7 H2         -0.0000   -0.0000   -0.0010 hc        1 MOL      0.048200
      8 H3          1.1800   -1.0990   -0.7040 hc        1 MOL      0.048200
      9 H4          2.9680    0.6360   -0.4450 h1        1 MOL      0.050500
     10 H5          1.7730    1.7500    0.2690 h1        1 MOL      0.050500
     11 H6          1.8050    2.6060   -3.2440 h5        1 MOL      0.079900
@<TRIPOS>BOND
     1    1    2 1   
     2    2    3 1   
     3    3    4 1   
     4    4    5 2   
     5    1    6 1   
     6    1    7 1   
     7    1    8 1   
     8    2    9 1   
     9    2   10 1   
    10    4   11 1   
@<TRIPOS>SUBSTRUCTURE
     1 MOL         1 TEMP              0 ****  ****    0 ROOT
