@<TRIPOS>MOLECULE
(2R)-pentan-2-ol
   18    17     1     0     0
SMALL
No Charge or Current Charge


@<TRIPOS>ATOM
      1 C1         -0.3310    0.7610   -0.7600 c3        1 MOL     -0.091800
      2 C2          0.1200    0.3160   -2.1430 c3        1 MOL     -0.079000
      3 C3         -0.5210   -1.0170   -2.5370 c3        1 MOL     -0.072100
      4 C4         -0.0770   -1.4810   -3.9280 c3        1 MOL      0.139500
      5 H1          1.0110   -1.6100   -3.9490 h1        1 MOL      0.028500
      6 C5         -0.7420   -2.7930   -4.3190 c3        1 MOL     -0.130600
      7 O1         -0.4070   -0.4940   -4.9020 oh        1 MOL     -0.599700
      8 H2          0.1380    1.7150   -0.4980 hc        1 MOL      0.032000
      9 H3         -0.0510    0.0250    0.0000 hc        1 MOL      0.032000
     10 H4         -1.4170    0.8960   -0.7260 hc        1 MOL      0.032000
     11 H5         -0.1430    1.0930   -2.8700 hc        1 MOL      0.047000
     12 H6          1.2120    0.2200   -2.1500 hc        1 MOL      0.047000
     13 H7         -0.2590   -1.7820   -1.7950 hc        1 MOL      0.046100
     14 H8         -1.6120   -0.9000   -2.5180 hc        1 MOL      0.046100
     15 H9         -0.4190   -3.1180   -5.3140 hc        1 MOL      0.042100
     16 H10        -0.4560   -3.5880   -3.6210 hc        1 MOL      0.042100
     17 H11        -1.8330   -2.7030   -4.3160 hc        1 MOL      0.042100
     18 H12        -0.1050   -0.8380   -5.7570 ho        1 MOL      0.396700
@<TRIPOS>BOND
     1    1    2 1   
     2    2    3 1   
     3    3    4 1   
     4    4    5 1   
     5    4    6 1   
     6    4    7 1   
     7    1    8 1   
     8    1    9 1   
     9    1   10 1   
    10    2   11 1   
    11    2   12 1   
    12    3   13 1   
    13    3   14 1   
    14    6   15 1   
    15    6   16 1   
    16    6   17 1   
    17    7   18 1   
@<TRIPOS>SUBSTRUCTURE
     1 MOL         1 TEMP              0 ****  ****    0 ROOT
