@<TRIPOS>MOLECULE
pent-1-ene
   15    14     1     0     0
SMALL
No Charge or Current Charge


@<TRIPOS>ATOM
      1 C1          4.2250   -3.9910   -0.0060 c3        1 MOL     -0.093000
      2 C2          3.2900   -2.9170   -0.5420 c3        1 MOL     -0.076600
      3 C3          1.9940   -2.8510    0.2660 c3        1 MOL     -0.054000
      4 C4          1.0740   -1.7920   -0.2650 c2        1 MOL     -0.162400
      5 C5          0.6440   -0.7470    0.4510 c2        1 MOL     -0.223800
      6 H1          5.1500   -4.0320   -0.5900 hc        1 MOL      0.033300
      7 H2          3.7450   -4.9730   -0.0620 hc        1 MOL      0.033300
      8 H3          4.4850   -3.7980    1.0390 hc        1 MOL      0.033300
      9 H4          3.8020   -1.9480   -0.5100 hc        1 MOL      0.040600
     10 H5          3.0680   -3.1290   -1.5950 hc        1 MOL      0.040600
     11 H6          2.2260   -2.6700    1.3230 hc        1 MOL      0.045000
     12 H7          1.4760   -3.8170    0.2160 hc        1 MOL      0.045000
     13 H8          0.7350   -1.8930   -1.2930 ha        1 MOL      0.117600
     14 H9         -0.0210   -0.0030    0.0270 ha        1 MOL      0.110600
     15 H10         0.9550   -0.6230    1.4830 ha        1 MOL      0.110600
@<TRIPOS>BOND
     1    1    2 1   
     2    2    3 1   
     3    3    4 1   
     4    4    5 2   
     5    1    6 1   
     6    1    7 1   
     7    1    8 1   
     8    2    9 1   
     9    2   10 1   
    10    3   11 1   
    11    3   12 1   
    12    4   13 1   
    13    5   14 1   
    14    5   15 1   
@<TRIPOS>SUBSTRUCTURE
     1 MOL         1 TEMP              0 ****  ****    0 ROOT
