@<TRIPOS>MOLECULE
2-methylpent-1-ene
   18    17     1     0     0
SMALL
No Charge or Current Charge


@<TRIPOS>ATOM
      1 C1         -2.9330   -0.8840    3.6710 c3        1 MOL     -0.092800
      2 C2         -1.5050   -0.4730    3.3450 c3        1 MOL     -0.077000
      3 C3         -1.4660    0.5640    2.2200 c3        1 MOL     -0.046900
      4 C4         -0.0600    0.9920    1.8730 c2        1 MOL     -0.108000
      5 C5          0.4430    0.8140    0.6410 c2        1 MOL     -0.229100
      6 C6          0.7390    1.6590    2.9550 c3        1 MOL     -0.062600
      7 H1         -2.9540   -1.6250    4.4770 hc        1 MOL      0.033200
      8 H2         -3.4280   -1.3140    2.7950 hc        1 MOL      0.033200
      9 H3         -3.5130   -0.0140    3.9960 hc        1 MOL      0.033200
     10 H4         -1.0390   -0.0710    4.2520 hc        1 MOL      0.040800
     11 H5         -0.9340   -1.3630    3.0560 hc        1 MOL      0.040800
     12 H6         -1.9640    0.1480    1.3340 hc        1 MOL      0.044700
     13 H7         -2.0490    1.4490    2.5050 hc        1 MOL      0.044700
     14 H8          1.4480    1.1330    0.3900 ha        1 MOL      0.111200
     15 H9         -0.1390    0.3410   -0.1430 ha        1 MOL      0.111200
     16 H10         1.2940    0.9130    3.5330 hc        1 MOL      0.041100
     17 H11         1.4520    2.3700    2.5280 hc        1 MOL      0.041100
     18 H12         0.1020    2.2110    3.6550 hc        1 MOL      0.041100
@<TRIPOS>BOND
     1    1    2 1   
     2    2    3 1   
     3    3    4 1   
     4    4    5 2   
     5    4    6 1   
     6    1    7 1   
     7    1    8 1   
     8    1    9 1   
     9    2   10 1   
    10    2   11 1   
    11    3   12 1   
    12    3   13 1   
    13    5   14 1   
    14    5   15 1   
    15    6   16 1   
    16    6   17 1   
    17    6   18 1   
@<TRIPOS>SUBSTRUCTURE
     1 MOL         1 TEMP              0 ****  ****    0 ROOT
