@<TRIPOS>MOLECULE
2-bromopropane
   11    10     1     0     0
SMALL
No Charge or Current Charge


@<TRIPOS>ATOM
      1 C1         -0.2500   -0.5660   -1.1350 c3        1 MOL     -0.096100
      2 C2         -0.1530   -0.4080    0.3720 c3        1 MOL      0.023600
      3 C3          0.2100    1.0080    0.7810 c3        1 MOL     -0.096100
      4 Br1         1.2150   -1.6330    1.0500 br        1 MOL     -0.197600
      5 H1         -0.5120   -1.5930   -1.4100 hc        1 MOL      0.048400
      6 H2         -1.0220    0.0950   -1.5430 hc        1 MOL      0.048400
      7 H3          0.6980   -0.3220   -1.6290 hc        1 MOL      0.048400
      8 H4         -1.0890   -0.7160    0.8490 h1        1 MOL      0.075500
      9 H5          0.2750    1.1020    1.8710 hc        1 MOL      0.048400
     10 H6         -0.5480    1.7170    0.4300 hc        1 MOL      0.048400
     11 H7          1.1760    1.3150    0.3640 hc        1 MOL      0.048400
@<TRIPOS>BOND
     1    1    2 1   
     2    2    3 1   
     3    2    4 1   
     4    1    5 1   
     5    1    6 1   
     6    1    7 1   
     7    2    8 1   
     8    3    9 1   
     9    3   10 1   
    10    3   11 1   
@<TRIPOS>SUBSTRUCTURE
     1 MOL         1 TEMP              0 ****  ****    0 ROOT
