@<TRIPOS>MOLECULE
1-bromopentane
   17    16     1     0     0
SMALL
No Charge or Current Charge


@<TRIPOS>ATOM
      1 C1         -1.1140   -1.3530    1.7100 c3        1 MOL     -0.092800
      2 C2         -0.4810   -0.9320    0.3920 c3        1 MOL     -0.079000
      3 C3          0.4410    0.2730    0.5770 c3        1 MOL     -0.081800
      4 C4          1.1030    0.7350   -0.7240 c3        1 MOL     -0.081400
      5 C5          2.0180    1.9330   -0.5330 c3        1 MOL     -0.008600
      6 Br1         2.8050    2.4370   -2.2430 br        1 MOL     -0.180100
      7 H1         -1.7700   -2.2160    1.5570 hc        1 MOL      0.034200
      8 H2         -1.7140   -0.5410    2.1340 hc        1 MOL      0.034200
      9 H3         -0.3490   -1.6330    2.4410 hc        1 MOL      0.034200
     10 H4          0.0850   -1.7750   -0.0200 hc        1 MOL      0.041100
     11 H5         -1.2800   -0.6960   -0.3190 hc        1 MOL      0.041100
     12 H6         -0.1200    1.1050    1.0190 hc        1 MOL      0.041300
     13 H7          1.2330    0.0130    1.2900 hc        1 MOL      0.041300
     14 H8          1.6800   -0.1060   -1.1300 hc        1 MOL      0.056100
     15 H9          0.3290    0.9650   -1.4680 hc        1 MOL      0.056100
     16 H10         2.8510    1.7100    0.1390 h1        1 MOL      0.072000
     17 H11         1.4830    2.8170   -0.1760 h1        1 MOL      0.072000
@<TRIPOS>BOND
     1    1    2 1   
     2    2    3 1   
     3    3    4 1   
     4    4    5 1   
     5    5    6 1   
     6    1    7 1   
     7    1    8 1   
     8    1    9 1   
     9    2   10 1   
    10    2   11 1   
    11    3   12 1   
    12    3   13 1   
    13    4   14 1   
    14    4   15 1   
    15    5   16 1   
    16    5   17 1   
@<TRIPOS>SUBSTRUCTURE
     1 MOL         1 TEMP              0 ****  ****    0 ROOT
