@<TRIPOS>MOLECULE
chloroethylene
    6     5     1     0     0
SMALL
No Charge or Current Charge


@<TRIPOS>ATOM
      1 C1          0.6580    0.2540   -0.2290 c2        1 MOL     -0.217400
      2 C2         -0.4830   -0.3390    0.1210 c2        1 MOL     -0.064000
      3 Cl1        -0.8310   -1.9800   -0.2210 cl        1 MOL     -0.124200
      4 H1          0.8550    1.2950   -0.0010 ha        1 MOL      0.128800
      5 H2          1.4240   -0.3040   -0.7580 ha        1 MOL      0.128800
      6 H3         -1.2840    0.1610    0.6490 h4        1 MOL      0.148000
@<TRIPOS>BOND
     1    1    2 2   
     2    2    3 1   
     3    1    4 1   
     4    1    5 1   
     5    2    6 1   
@<TRIPOS>SUBSTRUCTURE
     1 MOL         1 TEMP              0 ****  ****    0 ROOT
