@<TRIPOS>MOLECULE
propanal
   10     9     1     0     0
SMALL
No Charge or Current Charge


@<TRIPOS>ATOM
      1 C1          0.4290   -0.8130    0.5960 c3        1 MOL     -0.088900
      2 C2         -0.6600   -1.6800    1.1970 c3        1 MOL     -0.198500
      3 C3         -1.5420   -2.3180    0.1520 c         1 MOL      0.561700
      4 O1         -1.4120   -2.1670   -1.0580 o         1 MOL     -0.522900
      5 H1          1.0520   -0.3640    1.3770 hc        1 MOL      0.043400
      6 H2         -0.0000    0.0010    0.0020 hc        1 MOL      0.043400
      7 H3          1.0750   -1.4090   -0.0570 hc        1 MOL      0.043400
      8 H4         -0.2140   -2.4830    1.7930 hc        1 MOL      0.065200
      9 H5         -1.2990   -1.0800    1.8530 hc        1 MOL      0.065200
     10 H6         -2.3470   -2.9580    0.5520 h4        1 MOL     -0.011900
@<TRIPOS>BOND
     1    1    2 1   
     2    2    3 1   
     3    3    4 2   
     4    1    5 1   
     5    1    6 1   
     6    1    7 1   
     7    2    8 1   
     8    2    9 1   
     9    3   10 1   
@<TRIPOS>SUBSTRUCTURE
     1 MOL         1 TEMP              0 ****  ****    0 ROOT
