@<TRIPOS>MOLECULE
1,1,2-trichloroethane
    8     7     1     0     0
SMALL
No Charge or Current Charge


@<TRIPOS>ATOM
      1 C1         -0.1940    0.6220    0.4660 c3        1 MOL      0.009500
      2 C2          0.4260   -0.4920   -0.3720 c3        1 MOL      0.133300
      3 Cl1        -0.0730   -0.3970   -2.0800 cl        1 MOL     -0.134900
      4 Cl2         0.0550   -2.1050    0.2870 cl        1 MOL     -0.134900
      5 Cl3        -1.9770    0.6010    0.4730 cl        1 MOL     -0.144900
      6 H1          0.1340    0.5480    1.5080 h1        1 MOL      0.086000
      7 H2          0.1150    1.6030    0.0920 h1        1 MOL      0.086000
      8 H3          1.5150   -0.3910   -0.3580 h2        1 MOL      0.099900
@<TRIPOS>BOND
     1    1    2 1   
     2    2    3 1   
     3    2    4 1   
     4    1    5 1   
     5    1    6 1   
     6    1    7 1   
     7    2    8 1   
@<TRIPOS>SUBSTRUCTURE
     1 MOL         1 TEMP              0 ****  ****    0 ROOT
