@<TRIPOS>MOLECULE
(E)-hex-2-enal
   17    16     1     0     0
SMALL
No Charge or Current Charge


@<TRIPOS>ATOM
      1 C1          0.1590    1.1490    2.5260 c3        1 MOL     -0.093200
      2 C2         -0.1630    0.1120    1.4610 c3        1 MOL     -0.076900
      3 C3         -0.0930    0.7140    0.0570 c3        1 MOL     -0.065000
      4 C4         -0.4110   -0.3120   -0.9930 c2        1 MOL     -0.089500
      5 C5          0.4450   -0.6650   -1.9590 ce        1 MOL     -0.273700
      6 C6          0.0340   -1.6790   -2.9480 c         1 MOL      0.556700
      7 O1          0.7760   -2.0400   -3.8530 o         1 MOL     -0.527100
      8 H1          0.1060    0.7100    3.5280 hc        1 MOL      0.036500
      9 H2          1.1630    1.5600    2.3820 hc        1 MOL      0.036500
     10 H3         -0.5570    1.9750    2.4790 hc        1 MOL      0.036500
     11 H4         -1.1650   -0.2930    1.6470 hc        1 MOL      0.043000
     12 H5          0.5430   -0.7220    1.5480 hc        1 MOL      0.043000
     13 H6          0.9020    1.1460   -0.1100 hc        1 MOL      0.055600
     14 H7         -0.8140    1.5360   -0.0320 hc        1 MOL      0.055600
     15 H8         -1.3990   -0.7650   -0.9430 ha        1 MOL      0.121900
     16 H9          1.4350   -0.2340   -2.0480 ha        1 MOL      0.150100
     17 H10        -0.9800   -2.0970   -2.8290 h4        1 MOL     -0.009800
@<TRIPOS>BOND
     1    1    2 1   
     2    2    3 1   
     3    3    4 1   
     4    4    5 2   
     5    5    6 1   
     6    6    7 2   
     7    1    8 1   
     8    1    9 1   
     9    1   10 1   
    10    2   11 1   
    11    2   12 1   
    12    3   13 1   
    13    3   14 1   
    14    4   15 1   
    15    5   16 1   
    16    6   17 1   
@<TRIPOS>SUBSTRUCTURE
     1 MOL         1 TEMP              0 ****  ****    0 ROOT
