@<TRIPOS>MOLECULE
isoindoline-1,3-dione
   16    17     1     0     0
SMALL
No Charge or Current Charge


@<TRIPOS>ATOM
      1 C1         -0.4090   -0.9490   -1.8990 ca        1 MOL     -0.117500
      2 C2         -0.1120   -0.9480   -0.5200 ca        1 MOL     -0.117500
      3 C3          0.0410   -2.1460    0.1840 ca        1 MOL     -0.061600
      4 C4         -0.1120   -3.3170   -0.5290 ca        1 MOL     -0.140500
      5 C5         -0.4040   -3.3180   -1.8860 ca        1 MOL     -0.140500
      6 C6         -0.5590   -2.1490   -2.6010 ca        1 MOL     -0.061600
      7 C7         -0.4960   -4.7100   -2.3260 c         1 MOL      0.723100
      8 O1         -0.7390   -5.0650   -3.4640 o         1 MOL     -0.570300
      9 N1         -0.2550   -5.4680   -1.2060 n         1 MOL     -0.623000
     10 C8         -0.0150   -4.7070   -0.0860 c         1 MOL      0.723100
     11 O2          0.2310   -5.0600    1.0520 o         1 MOL     -0.570300
     12 H1         -0.5210   -0.0030   -2.4210 ha        1 MOL      0.144300
     13 H2         -0.0010   -0.0000    0.0000 ha        1 MOL      0.144300
     14 H3          0.2690   -2.1440    1.2440 ha        1 MOL      0.159700
     15 H4         -0.7870   -2.1500   -3.6600 ha        1 MOL      0.159700
     16 H5         -0.2530   -6.4820   -1.2050 hn        1 MOL      0.348600
@<TRIPOS>BOND
     1    1    6 ar  
     2    1    2 ar  
     3    2    3 ar  
     4    3    4 ar  
     5    4   10 1   
     6    4    5 ar  
     7    5    6 ar  
     8    5    7 1   
     9    7    8 2   
    10    7    9 1   
    11    9   10 1   
    12   10   11 2   
    13    1   12 1   
    14    2   13 1   
    15    3   14 1   
    16    6   15 1   
    17    9   16 1   
@<TRIPOS>SUBSTRUCTURE
     1 MOL         1 TEMP              0 ****  ****    0 ROOT
