@<TRIPOS>MOLECULE
2-ethylpyrazine
   16    16     1     0     0
SMALL
No Charge or Current Charge


@<TRIPOS>ATOM
      1 C1          0.7910    0.9900    1.1550 c3        1 MOL     -0.090700
      2 C2          0.0880    0.3940   -0.0550 c3        1 MOL     -0.129900
      3 C3         -0.3210   -1.0180    0.1820 ca        1 MOL      0.300200
      4 C4         -1.5570   -1.3070    0.7170 ca        1 MOL      0.281700
      5 N1         -1.9570   -2.5740    0.9450 nb        1 MOL     -0.626400
      6 C5         -1.0770   -3.5410    0.6190 ca        1 MOL      0.272400
      7 C6          0.1590   -3.2520    0.0830 ca        1 MOL      0.286300
      8 N2          0.5590   -1.9850   -0.1440 nb        1 MOL     -0.633300
      9 H1          1.0880    2.0280    0.9710 hc        1 MOL      0.040800
     10 H2          1.6930    0.4160    1.3890 hc        1 MOL      0.040800
     11 H3          0.1430    0.9770    2.0380 hc        1 MOL      0.040800
     12 H4          0.7480    0.4450   -0.9290 hc        1 MOL      0.058800
     13 H5         -0.7940    0.9970   -0.3050 hc        1 MOL      0.058800
     14 H6         -2.2690   -0.5350    0.9840 h4        1 MOL      0.033600
     15 H7         -1.3990   -4.5590    0.8020 h4        1 MOL      0.032800
     16 H8          0.8650   -4.0290   -0.1800 h4        1 MOL      0.033400
@<TRIPOS>BOND
     1    1    2 1   
     2    2    3 1   
     3    3    8 ar  
     4    3    4 ar  
     5    4    5 ar  
     6    5    6 ar  
     7    6    7 ar  
     8    7    8 ar  
     9    1    9 1   
    10    1   10 1   
    11    1   11 1   
    12    2   12 1   
    13    2   13 1   
    14    4   14 1   
    15    6   15 1   
    16    7   16 1   
@<TRIPOS>SUBSTRUCTURE
     1 MOL         1 TEMP              0 ****  ****    0 ROOT
