@<TRIPOS>MOLECULE
pyrene
   26    29     1     0     0
SMALL
No Charge or Current Charge


@<TRIPOS>ATOM
      1 C1          5.0010    4.9500    4.0350 ca        1 MOL     -0.127400
      2 C2          5.3100    4.5610    2.7330 ca        1 MOL     -0.113900
      3 C3          4.4550    3.7060    2.0220 ca        1 MOL     -0.033300
      4 C4          4.7480    3.3030    0.7120 ca        1 MOL     -0.114500
      5 C5          3.8870    2.4500    0.0170 ca        1 MOL     -0.114500
      6 C6          2.7100    1.9780    0.6140 ca        1 MOL     -0.033300
      7 C7          1.8350    1.1220   -0.0710 ca        1 MOL     -0.113900
      8 C8          0.6700    0.6630    0.5400 ca        1 MOL     -0.127300
      9 C9          0.3610    1.0520    1.8430 ca        1 MOL     -0.113900
     10 C10         1.2150    1.9080    2.5530 ca        1 MOL     -0.033300
     11 C11         2.3980    2.3740    1.9350 ca        1 MOL     -0.015400
     12 C12         3.2720    3.2390    2.6400 ca        1 MOL     -0.015400
     13 C13         2.9600    3.6350    3.9620 ca        1 MOL     -0.033300
     14 C14         3.8350    4.4920    4.6460 ca        1 MOL     -0.113900
     15 C15         1.7830    3.1630    4.5580 ca        1 MOL     -0.114500
     16 C16         0.9220    2.3110    3.8630 ca        1 MOL     -0.114500
     17 H1          5.6700    5.6130    4.5750 ha        1 MOL      0.133000
     18 H2          6.2260    4.9330    2.2780 ha        1 MOL      0.133600
     19 H3          5.6530    3.6490    0.2160 ha        1 MOL      0.133000
     20 H4          4.1480    2.1590   -0.9980 ha        1 MOL      0.133000
     21 H5          2.0550    0.8040   -1.0880 ha        1 MOL      0.133600
     22 H6          0.0000    0.0000   -0.0010 ha        1 MOL      0.133000
     23 H7         -0.5550    0.6810    2.2970 ha        1 MOL      0.133600
     24 H8          3.6160    4.8100    5.6630 ha        1 MOL      0.133600
     25 H9          1.5230    3.4540    5.5740 ha        1 MOL      0.133000
     26 H10         0.0180    1.9650    4.3590 ha        1 MOL      0.133000
@<TRIPOS>BOND
     1    1   14 ar  
     2    1    2 ar  
     3    2    3 ar  
     4    3   12 ar  
     5    3    4 ar  
     6    4    5 ar  
     7    5    6 ar  
     8    6   11 ar  
     9    6    7 ar  
    10    7    8 ar  
    11    8    9 ar  
    12    9   10 ar  
    13   10   16 ar  
    14   10   11 ar  
    15   11   12 ar  
    16   12   13 ar  
    17   13   14 ar  
    18   13   15 ar  
    19   15   16 ar  
    20    1   17 1   
    21    2   18 1   
    22    4   19 1   
    23    5   20 1   
    24    7   21 1   
    25    8   22 1   
    26    9   23 1   
    27   14   24 1   
    28   15   25 1   
    29   16   26 1   
@<TRIPOS>SUBSTRUCTURE
     1 MOL         1 TEMP              0 ****  ****    0 ROOT
