@<TRIPOS>MOLECULE
butyl
   20    19     1     0     0
SMALL
No Charge or Current Charge


@<TRIPOS>ATOM
      1 C1          0.3900   -1.0210   -0.0850 c3        1 MOL     -0.095100
      2 C2         -0.5800   -2.0240    0.5200 c3        1 MOL     -0.074200
      3 C3         -1.9310   -1.9920   -0.1890 c3        1 MOL     -0.112800
      4 C4         -2.9050   -2.9950    0.4140 c3        1 MOL      0.142000
      5 O1         -4.1380   -2.9160   -0.2880 os        1 MOL     -0.442200
      6 C5         -5.1230   -3.7630    0.1410 c         1 MOL      0.629900
      7 O2         -5.0320   -4.5660    1.0590 o         1 MOL     -0.547200
      8 C6         -6.3580   -3.5690   -0.6860 c3        1 MOL     -0.150400
      9 H1          1.3560   -1.0500    0.4290 hc        1 MOL      0.036100
     10 H2          0.5590   -1.2300   -1.1460 hc        1 MOL      0.036100
     11 H3         -0.0100   -0.0060    0.0030 hc        1 MOL      0.036100
     12 H4         -0.1470   -3.0290    0.4520 hc        1 MOL      0.037900
     13 H5         -0.7120   -1.7990    1.5850 hc        1 MOL      0.037900
     14 H6         -2.3650   -0.9870   -0.1340 hc        1 MOL      0.057700
     15 H7         -1.8040   -2.2070   -1.2570 hc        1 MOL      0.057700
     16 H8         -2.5190   -4.0160    0.3260 h1        1 MOL      0.062600
     17 H9         -3.0900   -2.7740    1.4700 h1        1 MOL      0.062600
     18 H10        -6.3340   -4.2370   -1.5500 hc        1 MOL      0.075200
     19 H11        -6.4300   -2.5260   -1.0060 hc        1 MOL      0.075200
     20 H12        -7.2390   -3.8090   -0.0830 hc        1 MOL      0.075200
@<TRIPOS>BOND
     1    1    2 1   
     2    2    3 1   
     3    3    4 1   
     4    4    5 1   
     5    5    6 1   
     6    6    7 2   
     7    6    8 1   
     8    1    9 1   
     9    1   10 1   
    10    1   11 1   
    11    2   12 1   
    12    2   13 1   
    13    3   14 1   
    14    3   15 1   
    15    4   16 1   
    16    4   17 1   
    17    8   18 1   
    18    8   19 1   
    19    8   20 1   
@<TRIPOS>SUBSTRUCTURE
     1 MOL         1 TEMP              0 ****  ****    0 ROOT
