@<TRIPOS>MOLECULE
3,3,3-trimethoxypropanenitrile
   21    20     1     0     0
SMALL
No Charge or Current Charge


@<TRIPOS>ATOM
      1 C1         -0.5710    0.9480    2.0210 c3        1 MOL      0.130600
      2 O1         -0.9290    0.5640    0.7020 os        1 MOL     -0.443200
      3 C2          0.1210   -0.0250   -0.0940 c3        1 MOL      0.532200
      4 C3          0.6610   -1.3150    0.5750 c3        1 MOL     -0.036200
      5 C4          1.7370   -1.9490   -0.2070 c1        1 MOL      0.225600
      6 N1          2.5840   -2.4490   -0.8220 n1        1 MOL     -0.358200
      7 O2         -0.3760   -0.3380   -1.4150 os        1 MOL     -0.443200
      8 C5         -1.6930   -0.8700   -1.4650 c3        1 MOL      0.130600
      9 O3          1.2560    0.8650   -0.2060 os        1 MOL     -0.443200
     10 C6          0.9480    2.1140   -0.8140 c3        1 MOL      0.130600
     11 H1         -1.4400    1.3790    2.5250 h1        1 MOL      0.043700
     12 H2          0.2400    1.6800    1.9810 h1        1 MOL      0.043700
     13 H3         -0.2350    0.0650    2.5700 h1        1 MOL      0.043700
     14 H4          1.0620   -1.0830    1.5700 hc        1 MOL      0.090800
     15 H5         -0.1500   -2.0340    0.7310 hc        1 MOL      0.090800
     16 H6         -1.9620   -1.0670   -2.5030 h1        1 MOL      0.043700
     17 H7         -2.3870   -0.1540   -1.0220 h1        1 MOL      0.043700
     18 H8         -1.7160   -1.8010   -0.8980 h1        1 MOL      0.043700
     19 H9          1.8510    2.7230   -0.8600 h1        1 MOL      0.043700
     20 H10         0.1790    2.6180   -0.2270 h1        1 MOL      0.043700
     21 H11         0.5780    1.9280   -1.8230 h1        1 MOL      0.043700
@<TRIPOS>BOND
     1    1    2 1   
     2    2    3 1   
     3    3    4 1   
     4    4    5 1   
     5    5    6 3   
     6    3    7 1   
     7    7    8 1   
     8    3    9 1   
     9    9   10 1   
    10    1   11 1   
    11    1   12 1   
    12    1   13 1   
    13    4   14 1   
    14    4   15 1   
    15    8   16 1   
    16    8   17 1   
    17    8   18 1   
    18   10   19 1   
    19   10   20 1   
    20   10   21 1   
@<TRIPOS>SUBSTRUCTURE
     1 MOL         1 TEMP              0 ****  ****    0 ROOT
