@<TRIPOS>MOLECULE
2-methylbutan-2-ol
   18    17     1     0     0
SMALL
No Charge or Current Charge


@<TRIPOS>ATOM
      1 C1         -0.6450    0.3350    0.8030 c3        1 MOL     -0.089100
      2 C2         -1.8900    1.0450    0.2810 c3        1 MOL     -0.105600
      3 C3         -2.8430    0.1480   -0.5330 c3        1 MOL      0.148900
      4 C4         -2.1690   -0.4440   -1.7720 c3        1 MOL     -0.103000
      5 C5         -4.0810    0.9470   -0.9520 c3        1 MOL     -0.103000
      6 O1         -3.2780   -0.9430    0.2800 oh        1 MOL     -0.598300
      7 H1         -0.0250    1.0390    1.3670 hc        1 MOL      0.037900
      8 H2         -0.0350   -0.0570   -0.0150 hc        1 MOL      0.037900
      9 H3         -0.9060   -0.4910    1.4710 hc        1 MOL      0.037900
     10 H4         -1.5800    1.9070   -0.3220 hc        1 MOL      0.040500
     11 H5         -2.4270    1.4410    1.1530 hc        1 MOL      0.040500
     12 H6         -2.8570   -1.0790   -2.3400 hc        1 MOL      0.043200
     13 H7         -1.7840    0.3390   -2.4330 hc        1 MOL      0.043200
     14 H8         -1.2990   -1.0480   -1.4880 hc        1 MOL      0.043200
     15 H9         -4.7790    0.3350   -1.5330 hc        1 MOL      0.043200
     16 H10        -4.6090    1.3380   -0.0740 hc        1 MOL      0.043200
     17 H11        -3.8000    1.8190   -1.5540 hc        1 MOL      0.043200
     18 H12        -3.7330   -0.5520    1.0400 ho        1 MOL      0.396200
@<TRIPOS>BOND
     1    1    2 1   
     2    2    3 1   
     3    3    4 1   
     4    3    5 1   
     5    3    6 1   
     6    1    7 1   
     7    1    8 1   
     8    1    9 1   
     9    2   10 1   
    10    2   11 1   
    11    4   12 1   
    12    4   13 1   
    13    4   14 1   
    14    5   15 1   
    15    5   16 1   
    16    5   17 1   
    17    6   18 1   
@<TRIPOS>SUBSTRUCTURE
     1 MOL         1 TEMP              0 ****  ****    0 ROOT
