@<TRIPOS>MOLECULE
1,2-dibromoethane
    8     7     1     0     0
SMALL
No Charge or Current Charge


@<TRIPOS>ATOM
      1 C1          0.2480   -0.5490   -0.4550 c3        1 MOL     -0.014900
      2 C2         -0.2480    0.5490    0.4550 c3        1 MOL     -0.014900
      3 Br1        -1.3630   -0.2200    1.8510 br        1 MOL     -0.162000
      4 Br2         1.3630    0.2200   -1.8520 br        1 MOL     -0.162000
      5 H1         -0.5700   -1.0720   -0.9600 h1        1 MOL      0.088500
      6 H2          0.8670   -1.2800    0.0730 h1        1 MOL      0.088500
      7 H3          0.5700    1.0720    0.9600 h1        1 MOL      0.088500
      8 H4         -0.8670    1.2800   -0.0730 h1        1 MOL      0.088500
@<TRIPOS>BOND
     1    1    2 1   
     2    2    3 1   
     3    1    4 1   
     4    1    5 1   
     5    1    6 1   
     6    2    7 1   
     7    2    8 1   
@<TRIPOS>SUBSTRUCTURE
     1 MOL         1 TEMP              0 ****  ****    0 ROOT
