@<TRIPOS>MOLECULE
3-tert-butyl-5-chloro-6-methyl-1H-pyrimidine-2,4-dione
   27    27     1     0     0
SMALL
No Charge or Current Charge


@<TRIPOS>ATOM
      1 C1         -0.4760   -0.9580    0.2360 c3        1 MOL     -0.086700
      2 C2         -1.5590   -1.2580   -0.7630 cc        1 MOL      0.109000
      3 C3         -1.6090   -2.3330   -1.5640 cd        1 MOL     -0.181600
      4 C4         -2.7480   -2.5150   -2.5110 c         1 MOL      0.728800
      5 O1         -2.8140   -3.5180   -3.2200 o         1 MOL     -0.588400
      6 N1         -3.6940   -1.4780   -2.5080 n         1 MOL     -0.476500
      7 C5         -3.6540   -0.3600   -1.6500 c         1 MOL      0.809100
      8 O2         -4.5160    0.5220   -1.6270 o         1 MOL     -0.645200
      9 N2         -2.5560   -0.3130   -0.8090 n         1 MOL     -0.473700
     10 C6         -4.7960   -1.5630   -3.4600 c3        1 MOL      0.134100
     11 C7         -4.6460   -2.8430   -4.2850 c3        1 MOL     -0.107800
     12 C8         -6.1160   -1.5890   -2.6870 c3        1 MOL     -0.107800
     13 C9         -4.7530   -0.3430   -4.3840 c3        1 MOL     -0.107800
     14 Cl1        -0.4080   -3.5730   -1.5740 cl        1 MOL     -0.040200
     15 H1         -0.7230   -1.3970    1.2060 hc        1 MOL      0.070800
     16 H2         -0.3600    0.1220    0.3570 hc        1 MOL      0.070800
     17 H3          0.4780   -1.3710   -0.1040 hc        1 MOL      0.070800
     18 H4         -2.4800    0.4800   -0.1770 hn        1 MOL      0.354300
     19 H5         -5.4570   -2.9440   -5.0150 hc        1 MOL      0.052000
     20 H6         -3.6970   -2.8510   -4.8340 hc        1 MOL      0.052000
     21 H7         -4.6730   -3.7330   -3.6460 hc        1 MOL      0.052000
     22 H8         -6.9730   -1.6530   -3.3670 hc        1 MOL      0.052000
     23 H9         -6.2440   -0.6800   -2.0880 hc        1 MOL      0.052000
     24 H10        -6.1590   -2.4480   -2.0090 hc        1 MOL      0.052000
     25 H11        -5.5690   -0.3700   -5.1160 hc        1 MOL      0.052000
     26 H12        -4.8440    0.5880   -3.8130 hc        1 MOL      0.052000
     27 H13        -3.8130   -0.3020   -4.9470 hc        1 MOL      0.052000
@<TRIPOS>BOND
     1    1    2 1   
     2    2    9 1   
     3    2    3 2   
     4    3    4 1   
     5    4    5 2   
     6    4    6 1   
     7    6    7 1   
     8    7    8 2   
     9    7    9 1   
    10    6   10 1   
    11   10   11 1   
    12   10   12 1   
    13   10   13 1   
    14    3   14 1   
    15    1   15 1   
    16    1   16 1   
    17    1   17 1   
    18    9   18 1   
    19   11   19 1   
    20   11   20 1   
    21   11   21 1   
    22   12   22 1   
    23   12   23 1   
    24   12   24 1   
    25   13   25 1   
    26   13   26 1   
    27   13   27 1   
@<TRIPOS>SUBSTRUCTURE
     1 MOL         1 TEMP              0 ****  ****    0 ROOT
