@<TRIPOS>MOLECULE
4-methylpyridine
   14    14     1     0     0
SMALL
No Charge or Current Charge


@<TRIPOS>ATOM
      1 C1          2.3470    0.8980    1.0440 c3        1 MOL     -0.061900
      2 C2          1.3880   -0.0680    1.6520 ca        1 MOL     -0.038700
      3 C3          0.2270   -0.4200    0.9730 ca        1 MOL     -0.249200
      4 C4         -0.6320   -1.3220    1.5800 ca        1 MOL      0.395600
      5 N1         -0.4090   -1.8820    2.7910 nb        1 MOL     -0.667500
      6 C5          0.7300   -1.5160    3.4210 ca        1 MOL      0.395600
      7 C6          1.6520   -0.6230    2.9000 ca        1 MOL     -0.249200
      8 H1          3.0860    0.3630    0.4410 hc        1 MOL      0.049800
      9 H2          1.8240    1.6190    0.4070 hc        1 MOL      0.049800
     10 H3          2.8690    1.4700    1.8190 hc        1 MOL      0.049800
     11 H4         -0.0080   -0.0060   -0.0020 ha        1 MOL      0.142700
     12 H5         -1.5500   -1.6300    1.0920 h4        1 MOL      0.020300
     13 H6          0.8890   -1.9760    4.3900 h4        1 MOL      0.020300
     14 H7          2.5490   -0.3680    3.4540 ha        1 MOL      0.142700
@<TRIPOS>BOND
     1    1    2 1   
     2    2    7 ar  
     3    2    3 ar  
     4    3    4 ar  
     5    4    5 ar  
     6    5    6 ar  
     7    6    7 ar  
     8    1    8 1   
     9    1    9 1   
    10    1   10 1   
    11    3   11 1   
    12    4   12 1   
    13    6   13 1   
    14    7   14 1   
@<TRIPOS>SUBSTRUCTURE
     1 MOL         1 TEMP              0 ****  ****    0 ROOT
