@<TRIPOS>MOLECULE
5-bromo-1H-pyrimidine-2,4-dione
   12    12     1     0     0
SMALL
No Charge or Current Charge


@<TRIPOS>ATOM
      1 C1          0.7470    1.3020   -0.1110 cc        1 MOL      0.080800
      2 C2         -0.2270    0.9660    0.7430 cd        1 MOL     -0.246300
      3 C3         -0.8160   -0.4020    0.6530 c         1 MOL      0.726500
      4 O1         -1.7120   -0.7770    1.4030 o         1 MOL     -0.581400
      5 N1         -0.2700   -1.2050   -0.3430 n         1 MOL     -0.583300
      6 C4          0.7470   -0.8470   -1.2310 c         1 MOL      0.802100
      7 O2          1.1810   -1.6160   -2.0890 o         1 MOL     -0.626600
      8 N2          1.2240    0.4430   -1.0630 n         1 MOL     -0.463700
      9 Br1        -0.8740    2.1360    2.0380 br        1 MOL     -0.001600
     10 H1          1.2200    2.2770   -0.1040 h4        1 MOL      0.173900
     11 H2         -0.6470   -2.1440   -0.4330 hn        1 MOL      0.359200
     12 H3          1.9650    0.7670   -1.6770 hn        1 MOL      0.360400
@<TRIPOS>BOND
     1    1    8 1   
     2    1    2 2   
     3    2    3 1   
     4    3    4 2   
     5    3    5 1   
     6    5    6 1   
     7    6    7 2   
     8    6    8 1   
     9    2    9 1   
    10    1   10 1   
    11    5   11 1   
    12    8   12 1   
@<TRIPOS>SUBSTRUCTURE
     1 MOL         1 TEMP              0 ****  ****    0 ROOT
