@<TRIPOS>MOLECULE
(2S)-2-methyltetrahydrofuran
   16    16     1     0     0
SMALL
No Charge or Current Charge


@<TRIPOS>ATOM
      1 C1          0.5050   -4.0080    1.1890 c3        1 MOL     -0.095000
      2 C2          0.2540   -2.6640    0.5330 c3        1 MOL      0.136500
      3 H1         -0.8070   -2.5720    0.2730 h1        1 MOL      0.037900
      4 C3          0.6910   -1.4840    1.3850 c3        1 MOL     -0.108000
      5 C4          0.9500   -0.4350    0.3330 c3        1 MOL     -0.109800
      6 C5          1.5630   -1.2540   -0.7830 c3        1 MOL      0.126100
      7 O1          1.0010   -2.5720   -0.6920 os        1 MOL     -0.424600
      8 H2          1.5610   -4.1160    1.4540 hc        1 MOL      0.044400
      9 H3         -0.0920   -4.1090    2.1000 hc        1 MOL      0.044400
     10 H4          0.2360   -4.8230    0.5090 hc        1 MOL      0.044400
     11 H5         -0.0630   -1.1880    2.1190 hc        1 MOL      0.054000
     12 H6          1.6220   -1.7070    1.9190 hc        1 MOL      0.054000
     13 H7         -0.0000   -0.0000   -0.0000 hc        1 MOL      0.052500
     14 H8          1.5980    0.3770    0.6720 hc        1 MOL      0.052500
     15 H9          1.3600   -0.8340   -1.7720 h1        1 MOL      0.045300
     16 H10         2.6470   -1.3460   -0.6570 h1        1 MOL      0.045300
@<TRIPOS>BOND
     1    1    2 1   
     2    2    3 1   
     3    2    7 1   
     4    2    4 1   
     5    4    5 1   
     6    5    6 1   
     7    6    7 1   
     8    1    8 1   
     9    1    9 1   
    10    1   10 1   
    11    4   11 1   
    12    4   12 1   
    13    5   13 1   
    14    5   14 1   
    15    6   15 1   
    16    6   16 1   
@<TRIPOS>SUBSTRUCTURE
     1 MOL         1 TEMP              0 ****  ****    0 ROOT
