@<TRIPOS>MOLECULE
1,1-dimethyl-3-phenyl-urea
   24    24     1     0     0
SMALL
No Charge or Current Charge


@<TRIPOS>ATOM
      1 C1          0.6780   -0.7210   -0.2300 c3        1 MOL      0.088300
      2 N1          1.8320    0.0810   -0.6180 n         1 MOL     -0.481600
      3 C2          1.5870    1.4500   -1.0680 c3        1 MOL      0.088300
      4 C3          3.1090   -0.5200   -0.5330 c         1 MOL      0.789500
      5 O1          3.2570   -1.6810   -0.1460 o         1 MOL     -0.589300
      6 N2          4.1540    0.3100   -0.9470 n         1 MOL     -0.531000
      7 C4          5.3830   -0.0750   -1.5360 ca        1 MOL      0.113300
      8 C5          6.3210    0.8950   -1.8900 ca        1 MOL     -0.196600
      9 C6          7.5330    0.5160   -2.4690 ca        1 MOL     -0.088600
     10 C7          7.8060   -0.8330   -2.6940 ca        1 MOL     -0.176500
     11 C8          6.8680   -1.8030   -2.3410 ca        1 MOL     -0.088600
     12 C9          5.6570   -1.4240   -1.7620 ca        1 MOL     -0.196600
     13 H1          0.2880   -1.2620   -1.0960 h1        1 MOL      0.045300
     14 H2         -0.1110   -0.0790    0.1690 h1        1 MOL      0.045300
     15 H3          0.9630   -1.4450    0.5380 h1        1 MOL      0.045300
     16 H4          1.6210    2.1130   -0.2100 h1        1 MOL      0.045300
     17 H5          0.6090    1.4990   -1.5360 h1        1 MOL      0.045300
     18 H6          2.3540    1.7290   -1.7840 h1        1 MOL      0.045300
     19 H7          4.0100    1.3130   -0.8900 hn        1 MOL      0.334400
     20 H8          6.1200    1.9490   -1.7170 ha        1 MOL      0.135000
     21 H9          8.2630    1.2710   -2.7440 ha        1 MOL      0.130300
     22 H10         8.7490   -1.1280   -3.1460 ha        1 MOL      0.132800
     23 H11         7.0810   -2.8540   -2.5170 ha        1 MOL      0.130300
     24 H12         4.9340   -2.1900   -1.4900 ha        1 MOL      0.135000
@<TRIPOS>BOND
     1    1    2 1   
     2    2    3 1   
     3    2    4 1   
     4    4    5 2   
     5    4    6 1   
     6    6    7 1   
     7    7   12 ar  
     8    7    8 ar  
     9    8    9 ar  
    10    9   10 ar  
    11   10   11 ar  
    12   11   12 ar  
    13    1   13 1   
    14    1   14 1   
    15    1   15 1   
    16    3   16 1   
    17    3   17 1   
    18    3   18 1   
    19    6   19 1   
    20    8   20 1   
    21    9   21 1   
    22   10   22 1   
    23   11   23 1   
    24   12   24 1   
@<TRIPOS>SUBSTRUCTURE
     1 MOL         1 TEMP              0 ****  ****    0 ROOT
