@<TRIPOS>MOLECULE
1-methylpiperidine
   20    20     1     0     0
SMALL
No Charge or Current Charge


@<TRIPOS>ATOM
      1 C1         -2.2770    2.8570    2.7080 c3        1 MOL      0.148500
      2 N1         -1.0460    2.5100    1.9970 n3        1 MOL     -0.712300
      3 C2         -0.5090    1.2350    2.4930 c3        1 MOL      0.159300
      4 C3          0.8050    0.8810    1.7940 c3        1 MOL     -0.076600
      5 C4          0.6360    0.8490    0.2790 c3        1 MOL     -0.078000
      6 C5          0.0020    2.1440   -0.2140 c3        1 MOL     -0.076600
      7 C6         -1.2870    2.4580    0.5480 c3        1 MOL      0.159300
      8 H1         -2.0910    2.8940    3.7840 h1        1 MOL      0.031400
      9 H2         -3.0510    2.1110    2.5100 h1        1 MOL      0.031400
     10 H3         -2.6400    3.8350    2.3790 h1        1 MOL      0.031400
     11 H4         -0.3140    1.3080    3.5700 h1        1 MOL      0.029700
     12 H5         -1.2330    0.4220    2.3470 h1        1 MOL      0.029700
     13 H6          1.5730    1.6180    2.0620 hc        1 MOL      0.046500
     14 H7          1.1610   -0.0930    2.1470 hc        1 MOL      0.046500
     15 H8          1.6080    0.6970   -0.2040 hc        1 MOL      0.038700
     16 H9          0.0000   -0.0000   -0.0000 hc        1 MOL      0.038700
     17 H10         0.7130    2.9710   -0.0890 hc        1 MOL      0.046500
     18 H11        -0.2120    2.0660   -1.2860 hc        1 MOL      0.046500
     19 H12        -1.6620    3.4280    0.1990 h1        1 MOL      0.029700
     20 H13        -2.0500    1.7060    0.3050 h1        1 MOL      0.029700
@<TRIPOS>BOND
     1    1    2 1   
     2    2    7 1   
     3    2    3 1   
     4    3    4 1   
     5    4    5 1   
     6    5    6 1   
     7    6    7 1   
     8    1    8 1   
     9    1    9 1   
    10    1   10 1   
    11    3   11 1   
    12    3   12 1   
    13    4   13 1   
    14    4   14 1   
    15    5   15 1   
    16    5   16 1   
    17    6   17 1   
    18    6   18 1   
    19    7   19 1   
    20    7   20 1   
@<TRIPOS>SUBSTRUCTURE
     1 MOL         1 TEMP              0 ****  ****    0 ROOT
