@<TRIPOS>MOLECULE
ethylsulfanylethane
   15    14     1     0     0
SMALL
No Charge or Current Charge


@<TRIPOS>ATOM
      1 C1          0.5030   -0.3030    1.1380 c3        1 MOL     -0.083500
      2 C2          1.8520   -0.8680    0.7340 c3        1 MOL     -0.007700
      3 S1          2.9260    0.4450    0.0920 ss        1 MOL     -0.312400
      4 C3          4.3830   -0.5610   -0.2730 c3        1 MOL     -0.007700
      5 C4          5.4980    0.2960   -0.8480 c3        1 MOL     -0.083500
      6 H1         -0.1590   -1.0840    1.5290 hc        1 MOL      0.045600
      7 H2          0.6060    0.4790    1.8980 hc        1 MOL      0.045600
      8 H3          0.0110    0.1430    0.2680 hc        1 MOL      0.045600
      9 H4          1.7270   -1.6310   -0.0400 h1        1 MOL      0.055300
     10 H5          2.3410   -1.3340    1.5950 h1        1 MOL      0.055300
     11 H6          4.7220   -1.0490    0.6480 h1        1 MOL      0.055300
     12 H7          4.1070   -1.3450   -0.9870 h1        1 MOL      0.055300
     13 H8          6.3870   -0.3030   -1.0730 hc        1 MOL      0.045600
     14 H9          5.1810    0.8060   -1.7630 hc        1 MOL      0.045600
     15 H10         5.7920    1.0650   -0.1250 hc        1 MOL      0.045600
@<TRIPOS>BOND
     1    1    2 1   
     2    2    3 1   
     3    3    4 1   
     4    4    5 1   
     5    1    6 1   
     6    1    7 1   
     7    1    8 1   
     8    2    9 1   
     9    2   10 1   
    10    4   11 1   
    11    4   12 1   
    12    5   13 1   
    13    5   14 1   
    14    5   15 1   
@<TRIPOS>SUBSTRUCTURE
     1 MOL         1 TEMP              0 ****  ****    0 ROOT
