@<TRIPOS>MOLECULE
methylsulfanylmethane
    9     8     1     0     0
SMALL
No Charge or Current Charge


@<TRIPOS>ATOM
      1 C1          0.9860   -0.3290    0.3400 c3        1 MOL     -0.046500
      2 S1          1.2240    0.1820    2.0580 ss        1 MOL     -0.276900
      3 C2          2.8850   -0.4870    2.3100 c3        1 MOL     -0.046500
      4 H1          0.0030   -0.0060   -0.0110 h1        1 MOL      0.061700
      5 H2          1.0510   -1.4170    0.2640 h1        1 MOL      0.061700
      6 H3          1.7560    0.1200   -0.2910 h1        1 MOL      0.061700
      7 H4          3.2180   -0.2720    3.3270 h1        1 MOL      0.061700
      8 H5          3.5770   -0.0290    1.6010 h1        1 MOL      0.061700
      9 H6          2.8730   -1.5670    2.1550 h1        1 MOL      0.061700
@<TRIPOS>BOND
     1    1    2 1   
     2    2    3 1   
     3    1    4 1   
     4    1    5 1   
     5    1    6 1   
     6    3    7 1   
     7    3    8 1   
     8    3    9 1   
@<TRIPOS>SUBSTRUCTURE
     1 MOL         1 TEMP              0 ****  ****    0 ROOT
