@<TRIPOS>MOLECULE
butane-1-thiol
   15    14     1     0     0
SMALL
No Charge or Current Charge


@<TRIPOS>ATOM
      1 C1          0.9410   -0.0580   -0.7030 c3        1 MOL     -0.093700
      2 C2          0.8880   -1.4200   -1.3800 c3        1 MOL     -0.079600
      3 C3         -0.3380   -1.5430   -2.2870 c3        1 MOL     -0.084000
      4 C4         -0.4450   -2.8930   -2.9950 c3        1 MOL      0.005100
      5 S1         -1.9070   -3.0190   -4.0670 sh        1 MOL     -0.378700
      6 H1          1.8240    0.0110   -0.0590 hc        1 MOL      0.035000
      7 H2          0.0540    0.1070   -0.0830 hc        1 MOL      0.035000
      8 H3          0.9970    0.7460   -1.4450 hc        1 MOL      0.035000
      9 H4          0.8620   -2.2010   -0.6110 hc        1 MOL      0.041200
     10 H5          1.8100   -1.5600   -1.9540 hc        1 MOL      0.041200
     11 H6         -0.3460   -0.7280   -3.0220 hc        1 MOL      0.049200
     12 H7         -1.2400   -1.4130   -1.6750 hc        1 MOL      0.049200
     13 H8          0.4480   -3.0810   -3.6000 h1        1 MOL      0.072800
     14 H9         -0.5120   -3.6910   -2.2480 h1        1 MOL      0.072800
     15 H10        -1.5840   -1.9940   -4.8660 hs        1 MOL      0.199500
@<TRIPOS>BOND
     1    1    2 1   
     2    2    3 1   
     3    3    4 1   
     4    4    5 1   
     5    1    6 1   
     6    1    7 1   
     7    1    8 1   
     8    2    9 1   
     9    2   10 1   
    10    3   11 1   
    11    3   12 1   
    12    4   13 1   
    13    4   14 1   
    14    5   15 1   
@<TRIPOS>SUBSTRUCTURE
     1 MOL         1 TEMP              0 ****  ****    0 ROOT
