@<TRIPOS>MOLECULE
tetrafluoromethane
    5     4     1     0     0
SMALL
No Charge or Current Charge


@<TRIPOS>ATOM
      1 C1         -0.0000    0.0000    0.0000 c3        1 MOL      0.862200
      2 F1          0.9410    0.8520    0.4400 f         1 MOL     -0.215500
      3 F2          0.4890   -1.2510    0.0080 f         1 MOL     -0.215500
      4 F3         -0.3560    0.3340   -1.2520 f         1 MOL     -0.215500
      5 F4         -1.0750    0.0660    0.8040 f         1 MOL     -0.215500
@<TRIPOS>BOND
     1    1    2 1   
     2    1    3 1   
     3    1    4 1   
     4    1    5 1   
@<TRIPOS>SUBSTRUCTURE
     1 MOL         1 TEMP              0 ****  ****    0 ROOT
