@<TRIPOS>MOLECULE
1,2-dimethoxybenzene
   20    20     1     0     0
SMALL
No Charge or Current Charge


@<TRIPOS>ATOM
      1 C1          1.3500   -2.1270   -2.1490 c3        1 MOL      0.115400
      2 O1          1.9380   -1.0220   -1.4740 os        1 MOL     -0.322900
      3 C2          1.8850   -1.0360   -0.1120 ca        1 MOL      0.089900
      4 C3          2.9210   -1.6310    0.6080 ca        1 MOL     -0.156400
      5 C4          2.8780   -1.6520    2.0020 ca        1 MOL     -0.128300
      6 C5          1.8000   -1.0790    2.6760 ca        1 MOL     -0.128300
      7 C6          0.7640   -0.4840    1.9550 ca        1 MOL     -0.156400
      8 C7          0.8070   -0.4630    0.5610 ca        1 MOL      0.089900
      9 O2         -0.2120    0.1190   -0.1310 os        1 MOL     -0.322900
     10 C8         -1.2770    0.6820    0.6330 c3        1 MOL      0.115500
     11 H1          1.4580   -1.9960   -3.2280 h1        1 MOL      0.042300
     12 H2          0.2910   -2.1960   -1.8840 h1        1 MOL      0.042300
     13 H3          1.8600   -3.0440   -1.8430 h1        1 MOL      0.042300
     14 H4          3.7640   -2.0800    0.0900 ha        1 MOL      0.141100
     15 H5          3.6860   -2.1140    2.5630 ha        1 MOL      0.134400
     16 H6          1.7660   -1.0970    3.7610 ha        1 MOL      0.134400
     17 H7         -0.0740   -0.0400    2.4850 ha        1 MOL      0.141100
     18 H8         -2.0140    1.1080   -0.0460 h1        1 MOL      0.042300
     19 H9         -0.8730    1.4500    1.2920 h1        1 MOL      0.042300
     20 H10        -1.7330   -0.1110    1.2240 h1        1 MOL      0.042300
@<TRIPOS>BOND
     1    1    2 1   
     2    2    3 1   
     3    3    8 ar  
     4    3    4 ar  
     5    4    5 ar  
     6    5    6 ar  
     7    6    7 ar  
     8    7    8 ar  
     9    8    9 1   
    10    9   10 1   
    11    1   11 1   
    12    1   12 1   
    13    1   13 1   
    14    4   14 1   
    15    5   15 1   
    16    6   16 1   
    17    7   17 1   
    18   10   18 1   
    19   10   19 1   
    20   10   20 1   
@<TRIPOS>SUBSTRUCTURE
     1 MOL         1 TEMP              0 ****  ****    0 ROOT
