@<TRIPOS>MOLECULE
acetone
   10     9     1     0     0
SMALL
No Charge or Current Charge


@<TRIPOS>ATOM
      1 C1         -0.7030   -0.4110    0.7290 c3        1 MOL     -0.202800
      2 C2         -0.0570   -0.4470    2.0870 c         1 MOL      0.563600
      3 O1          0.1010   -1.5020    2.6990 o         1 MOL     -0.535800
      4 C3          0.3850    0.8720    2.6620 c3        1 MOL     -0.202800
      5 H1         -1.7820   -0.2840    0.8400 hc        1 MOL      0.063000
      6 H2         -0.2840    0.4120    0.1460 hc        1 MOL      0.063000
      7 H3         -0.5090   -1.3510    0.2040 hc        1 MOL      0.063000
      8 H4         -0.4300    1.3120    3.2440 hc        1 MOL      0.063000
      9 H5          0.6480    1.5550    1.8510 hc        1 MOL      0.063000
     10 H6          1.2450    0.7170    3.3180 hc        1 MOL      0.063000
@<TRIPOS>BOND
     1    1    2 1   
     2    2    3 2   
     3    2    4 1   
     4    1    5 1   
     5    1    6 1   
     6    1    7 1   
     7    4    8 1   
     8    4    9 1   
     9    4   10 1   
@<TRIPOS>SUBSTRUCTURE
     1 MOL         1 TEMP              0 ****  ****    0 ROOT
