@<TRIPOS>MOLECULE
3,4-dichlorophenol
   13    13     1     0     0
SMALL
No Charge or Current Charge


@<TRIPOS>ATOM
      1 C1          1.8850   -1.0360   -0.1120 ca        1 MOL     -0.208400
      2 C2          2.9210   -1.6310    0.6080 ca        1 MOL     -0.076500
      3 C3          2.8780   -1.6520    2.0020 ca        1 MOL     -0.020000
      4 C4          1.8000   -1.0790    2.6760 ca        1 MOL      0.052000
      5 C5          0.7640   -0.4840    1.9550 ca        1 MOL     -0.148100
      6 C6          0.8070   -0.4630    0.5610 ca        1 MOL      0.135600
      7 O1         -0.2040    0.1170   -0.1420 oh        1 MOL     -0.489700
      8 Cl1         1.6890   -1.0730    4.4010 cl        1 MOL     -0.064200
      9 Cl2         4.1920   -2.4030    2.8380 cl        1 MOL     -0.069500
     10 H1          1.9240   -1.0230   -1.1980 ha        1 MOL      0.140700
     11 H2          3.7540   -2.0730    0.0670 ha        1 MOL      0.154100
     12 H3         -0.0820   -0.0340    2.4700 ha        1 MOL      0.169900
     13 H4         -0.0310    0.0520   -1.0950 ho        1 MOL      0.424100
@<TRIPOS>BOND
     1    1    6 ar  
     2    1    2 ar  
     3    2    3 ar  
     4    3    4 ar  
     5    4    5 ar  
     6    5    6 ar  
     7    6    7 1   
     8    4    8 1   
     9    3    9 1   
    10    1   10 1   
    11    2   11 1   
    12    5   12 1   
    13    7   13 1   
@<TRIPOS>SUBSTRUCTURE
     1 MOL         1 TEMP              0 ****  ****    0 ROOT
