@<TRIPOS>MOLECULE
trimethoxymethylbenzene
   27    27     1     0     0
SMALL
No Charge or Current Charge


@<TRIPOS>ATOM
      1 C1          0.7890    0.7960   -0.3490 c3        1 MOL      0.123000
      2 O1          0.7050    1.8840    0.5670 os        1 MOL     -0.435300
      3 C2         -0.5850    2.5420    0.6460 c3        1 MOL      0.562100
      4 C3         -0.9240    3.0960   -0.7440 ca        1 MOL     -0.134000
      5 C4         -0.0830    4.0320   -1.3460 ca        1 MOL     -0.093800
      6 C5         -0.3920    4.5360   -2.6090 ca        1 MOL     -0.142200
      7 C6         -1.5420    4.1050   -3.2700 ca        1 MOL     -0.115100
      8 C7         -2.3830    3.1690   -2.6680 ca        1 MOL     -0.142200
      9 C8         -2.0740    2.6650   -1.4050 ca        1 MOL     -0.093800
     10 O2         -1.6070    1.6330    1.1030 os        1 MOL     -0.435300
     11 C9         -1.3670    1.0820    2.3940 c3        1 MOL      0.123000
     12 O3         -0.4330    3.6620    1.5540 os        1 MOL     -0.435300
     13 C10        -1.6030    4.4450    1.7690 c3        1 MOL      0.123000
     14 H1          1.7980    0.3780   -0.3280 h1        1 MOL      0.042900
     15 H2          0.5490    1.1470   -1.3560 h1        1 MOL      0.042900
     16 H3          0.0710    0.0270   -0.0530 h1        1 MOL      0.042900
     17 H4          0.8150    4.3740   -0.8380 ha        1 MOL      0.153100
     18 H5          0.2640    5.2640   -3.0780 ha        1 MOL      0.135300
     19 H6         -1.7820    4.4970   -4.2540 ha        1 MOL      0.132200
     20 H7         -3.2790    2.8340   -3.1830 ha        1 MOL      0.135300
     21 H8         -2.7360    1.9360   -0.9440 ha        1 MOL      0.153100
     22 H9         -2.1870    0.4120    2.6540 h1        1 MOL      0.042900
     23 H10        -1.2920    1.8920    3.1190 h1        1 MOL      0.042900
     24 H11        -0.4310    0.5250    2.3650 h1        1 MOL      0.042900
     25 H12        -1.3700    5.2520    2.4630 h1        1 MOL      0.042900
     26 H13        -2.3890    3.8080    2.1750 h1        1 MOL      0.042900
     27 H14        -1.9230    4.8620    0.8140 h1        1 MOL      0.042900
@<TRIPOS>BOND
     1    1    2 1   
     2    2    3 1   
     3    3    4 1   
     4    4    9 ar  
     5    4    5 ar  
     6    5    6 ar  
     7    6    7 ar  
     8    7    8 ar  
     9    8    9 ar  
    10    3   10 1   
    11   10   11 1   
    12    3   12 1   
    13   12   13 1   
    14    1   14 1   
    15    1   15 1   
    16    1   16 1   
    17    5   17 1   
    18    6   18 1   
    19    7   19 1   
    20    8   20 1   
    21    9   21 1   
    22   11   22 1   
    23   11   23 1   
    24   11   24 1   
    25   13   25 1   
    26   13   26 1   
    27   13   27 1   
@<TRIPOS>SUBSTRUCTURE
     1 MOL         1 TEMP              0 ****  ****    0 ROOT
