@<TRIPOS>MOLECULE
3-methylbutan-2-one
   16    15     1     0     0
SMALL
No Charge or Current Charge


@<TRIPOS>ATOM
      1 C1          1.7490    3.8110    0.3320 c3        1 MOL     -0.086300
      2 C2          0.2940    3.4410    0.5920 c3        1 MOL     -0.164000
      3 C3         -0.6400    4.5640    0.1510 c3        1 MOL     -0.086300
      4 C4         -0.0460    2.1350   -0.1210 c         1 MOL      0.566300
      5 O1         -0.4800    2.1060   -1.2730 o         1 MOL     -0.531300
      6 C5          0.2060    0.8570    0.6390 c3        1 MOL     -0.203100
      7 H1          2.4260    3.0090    0.6470 hc        1 MOL      0.042800
      8 H2          1.9190    4.0040   -0.7330 hc        1 MOL      0.042800
      9 H3          2.0320    4.7130    0.8840 hc        1 MOL      0.042800
     10 H4          0.1430    3.2810    1.6670 hc        1 MOL      0.058100
     11 H5         -1.6850    4.2970    0.3380 hc        1 MOL      0.042800
     12 H6         -0.5380    4.7740   -0.9200 hc        1 MOL      0.042800
     13 H7         -0.4230    5.4870    0.6990 hc        1 MOL      0.042800
     14 H8         -0.6830    0.5810    1.2090 hc        1 MOL      0.063200
     15 H9          1.0400    1.0020    1.3320 hc        1 MOL      0.063200
     16 H10         0.4720    0.0600   -0.0590 hc        1 MOL      0.063200
@<TRIPOS>BOND
     1    1    2 1   
     2    2    3 1   
     3    2    4 1   
     4    4    5 2   
     5    4    6 1   
     6    1    7 1   
     7    1    8 1   
     8    1    9 1   
     9    2   10 1   
    10    3   11 1   
    11    3   12 1   
    12    3   13 1   
    13    6   14 1   
    14    6   15 1   
    15    6   16 1   
@<TRIPOS>SUBSTRUCTURE
     1 MOL         1 TEMP              0 ****  ****    0 ROOT
