@<TRIPOS>MOLECULE
1-(4-pyridyl)ethanone
   16    16     1     0     0
SMALL
No Charge or Current Charge


@<TRIPOS>ATOM
      1 C1          3.7680    0.7170    1.4130 c3        1 MOL     -0.198200
      2 C2          2.3220    0.8750    1.0600 c         1 MOL      0.573400
      3 O1          2.0050    1.7850    0.3010 o         1 MOL     -0.520100
      4 C3          1.3880   -0.0680    1.6520 ca        1 MOL     -0.135100
      5 C4          0.2270   -0.4200    0.9730 ca        1 MOL     -0.205700
      6 C5         -0.6320   -1.3220    1.5800 ca        1 MOL      0.386300
      7 N1         -0.4090   -1.8820    2.7910 nb        1 MOL     -0.648000
      8 C6          0.7300   -1.5160    3.4210 ca        1 MOL      0.386300
      9 C7          1.6520   -0.6230    2.9000 ca        1 MOL     -0.205700
     10 H1          4.0770    1.2820    2.3070 hc        1 MOL      0.067900
     11 H2          4.4490    0.9960    0.5940 hc        1 MOL      0.067900
     12 H3          4.0390   -0.3260    1.6550 hc        1 MOL      0.067900
     13 H4         -0.0110   -0.0050   -0.0010 ha        1 MOL      0.154300
     14 H5         -1.5510   -1.6280    1.0930 h4        1 MOL      0.027300
     15 H6          0.8890   -1.9760    4.3900 h4        1 MOL      0.027300
     16 H7          2.5480   -0.3690    3.4560 ha        1 MOL      0.154300
@<TRIPOS>BOND
     1    1    2 1   
     2    2    3 2   
     3    2    4 1   
     4    4    9 ar  
     5    4    5 ar  
     6    5    6 ar  
     7    6    7 ar  
     8    7    8 ar  
     9    8    9 ar  
    10    1   10 1   
    11    1   11 1   
    12    1   12 1   
    13    5   13 1   
    14    6   14 1   
    15    8   15 1   
    16    9   16 1   
@<TRIPOS>SUBSTRUCTURE
     1 MOL         1 TEMP              0 ****  ****    0 ROOT
