@<TRIPOS>MOLECULE
4-methylbenzaldehyde
   17    17     1     0     0
SMALL
No Charge or Current Charge


@<TRIPOS>ATOM
      1 C1          1.9300   -1.0140   -1.6030 c3        1 MOL     -0.061900
      2 C2          1.8850   -1.0360   -0.1120 ca        1 MOL     -0.042200
      3 C3          2.9210   -1.6310    0.6080 ca        1 MOL     -0.148000
      4 C4          2.8780   -1.6520    2.0020 ca        1 MOL     -0.073500
      5 C5          1.8000   -1.0790    2.6760 ca        1 MOL     -0.203900
      6 C6          0.7640   -0.4840    1.9550 ca        1 MOL     -0.073500
      7 C7          0.8070   -0.4630    0.5610 ca        1 MOL     -0.148000
      8 C8          1.7550   -1.1010    4.1290 c         1 MOL      0.576200
      9 O1          0.8300   -0.6120    4.7830 o         1 MOL     -0.531300
     10 H1          2.4380   -0.1080   -1.9490 hc        1 MOL      0.049300
     11 H2          2.4630   -1.8880   -1.9920 hc        1 MOL      0.049300
     12 H3          0.9200   -1.0360   -2.0250 hc        1 MOL      0.049300
     13 H4          3.7650   -2.0800    0.0920 ha        1 MOL      0.136900
     14 H5          3.6910   -2.1180    2.5540 ha        1 MOL      0.144000
     15 H6         -0.0810   -0.0350    2.4700 ha        1 MOL      0.144000
     16 H7         -0.0050    0.0020    0.0080 ha        1 MOL      0.136900
     17 H8          2.6040   -1.5860    4.6590 h4        1 MOL     -0.003400
@<TRIPOS>BOND
     1    1    2 1   
     2    2    7 ar  
     3    2    3 ar  
     4    3    4 ar  
     5    4    5 ar  
     6    5    6 ar  
     7    6    7 ar  
     8    5    8 1   
     9    8    9 2   
    10    1   10 1   
    11    1   11 1   
    12    1   12 1   
    13    3   13 1   
    14    4   14 1   
    15    6   15 1   
    16    7   16 1   
    17    8   17 1   
@<TRIPOS>SUBSTRUCTURE
     1 MOL         1 TEMP              0 ****  ****    0 ROOT
