@<TRIPOS>MOLECULE
4-bromophenol
   13    13     1     0     0
SMALL
No Charge or Current Charge


@<TRIPOS>ATOM
      1 C1          1.8850   -1.0360   -0.1120 ca        1 MOL     -0.187500
      2 C2          2.9210   -1.6310    0.6080 ca        1 MOL     -0.065900
      3 C3          2.8780   -1.6520    2.0020 ca        1 MOL     -0.066100
      4 C4          1.8000   -1.0790    2.6760 ca        1 MOL     -0.065900
      5 C5          0.7640   -0.4840    1.9550 ca        1 MOL     -0.187500
      6 C6          0.8070   -0.4630    0.5610 ca        1 MOL      0.137900
      7 O1         -0.2040    0.1170   -0.1430 oh        1 MOL     -0.492800
      8 Br1         4.2810   -2.4580    2.9780 br        1 MOL     -0.087400
      9 H1          1.9240   -1.0240   -1.1980 ha        1 MOL      0.147800
     10 H2          3.7540   -2.0740    0.0680 ha        1 MOL      0.148600
     11 H3          1.7510   -1.0870    3.7610 ha        1 MOL      0.148600
     12 H4         -0.0740   -0.0400    2.4850 ha        1 MOL      0.147800
     13 H5         -0.8760    0.4680    0.4620 ho        1 MOL      0.422500
@<TRIPOS>BOND
     1    1    6 ar  
     2    1    2 ar  
     3    2    3 ar  
     4    3    4 ar  
     5    4    5 ar  
     6    5    6 ar  
     7    6    7 1   
     8    3    8 1   
     9    1    9 1   
    10    2   10 1   
    11    4   11 1   
    12    5   12 1   
    13    7   13 1   
@<TRIPOS>SUBSTRUCTURE
     1 MOL         1 TEMP              0 ****  ****    0 ROOT
