@<TRIPOS>MOLECULE
1-methoxypropane
   15    14     1     0     0
SMALL
No Charge or Current Charge


@<TRIPOS>ATOM
      1 C1         -0.0020   -0.6660    0.8690 c3        1 MOL     -0.093300
      2 C2          1.2440   -0.4430    1.7060 c3        1 MOL     -0.084300
      3 C3          1.2750   -1.3490    2.9270 c3        1 MOL      0.128000
      4 O1          2.4630   -1.0900    3.6620 os        1 MOL     -0.423500
      5 C4          2.5500   -1.9090    4.8200 c3        1 MOL      0.117300
      6 H1         -0.0100   -0.0070   -0.0060 hc        1 MOL      0.034700
      7 H2         -0.0430   -1.7000    0.5150 hc        1 MOL      0.034700
      8 H3         -0.9070   -0.4710    1.4530 hc        1 MOL      0.034700
      9 H4          1.2970    0.6050    2.0240 hc        1 MOL      0.054000
     10 H5          2.1390   -0.6180    1.0960 hc        1 MOL      0.054000
     11 H6          0.4150   -1.1590    3.5770 h1        1 MOL      0.024600
     12 H7          1.2710   -2.4040    2.6320 h1        1 MOL      0.024600
     13 H8          3.4730   -1.6800    5.3550 h1        1 MOL      0.031500
     14 H9          2.5360   -2.9580    4.5210 h1        1 MOL      0.031500
     15 H10         1.6930   -1.7000    5.4620 h1        1 MOL      0.031500
@<TRIPOS>BOND
     1    1    2 1   
     2    2    3 1   
     3    3    4 1   
     4    4    5 1   
     5    1    6 1   
     6    1    7 1   
     7    1    8 1   
     8    2    9 1   
     9    2   10 1   
    10    3   11 1   
    11    3   12 1   
    12    5   13 1   
    13    5   14 1   
    14    5   15 1   
@<TRIPOS>SUBSTRUCTURE
     1 MOL         1 TEMP              0 ****  ****    0 ROOT
