@<TRIPOS>MOLECULE
(2Z)-3,7-dimethylocta-2,6-dien-1-ol
   29    28     1     0     0
SMALL
No Charge or Current Charge


@<TRIPOS>ATOM
      1 C1         -6.1490   -0.6680    5.1830 c3        1 MOL     -0.061000
      2 C2         -5.0690   -1.0550    4.2070 c2        1 MOL     -0.111500
      3 C3         -4.9010   -0.3570    3.0680 c2        1 MOL     -0.177800
      4 C4         -3.8950   -0.5910    1.9760 c3        1 MOL     -0.041800
      5 C5         -2.9670    0.6120    1.7610 c3        1 MOL     -0.045200
      6 C6         -1.9420    0.4040    0.6650 c2        1 MOL     -0.095900
      7 C7         -0.7130   -0.1150    0.8500 c2        1 MOL     -0.174500
      8 C8         -0.0970   -0.5890    2.1280 c3        1 MOL      0.163700
      9 O1          1.0760    0.1750    2.3760 oh        1 MOL     -0.597200
     10 C9         -2.3700    0.8590   -0.7070 c3        1 MOL     -0.065100
     11 C10        -4.2400   -2.2320    4.6360 c3        1 MOL     -0.061000
     12 H1         -7.0780   -1.1960    4.9490 hc        1 MOL      0.040800
     13 H2         -5.8830   -0.9090    6.2180 hc        1 MOL      0.040800
     14 H3         -6.3380    0.4090    5.1320 hc        1 MOL      0.040800
     15 H4         -5.5670    0.4860    2.8830 ha        1 MOL      0.117800
     16 H5         -3.3120   -1.5020    2.1350 hc        1 MOL      0.047600
     17 H6         -4.4550   -0.7650    1.0480 hc        1 MOL      0.047600
     18 H7         -3.5810    1.4830    1.4960 hc        1 MOL      0.049400
     19 H8         -2.4910    0.8880    2.7080 hc        1 MOL      0.049400
     20 H9         -0.0730   -0.2370   -0.0230 ha        1 MOL      0.133100
     21 H10         0.1910   -1.6400    2.0240 h1        1 MOL      0.026200
     22 H11        -0.7550   -0.5000    2.9940 h1        1 MOL      0.026200
     23 H12         1.4530   -0.1530    3.2080 ho        1 MOL      0.397200
     24 H13        -2.0870    1.9050   -0.8640 hc        1 MOL      0.042800
     25 H14        -3.4540    0.7700   -0.8220 hc        1 MOL      0.042800
     26 H15        -1.9050    0.2700   -1.5040 hc        1 MOL      0.042800
     27 H16        -4.6890   -3.1610    4.2700 hc        1 MOL      0.040800
     28 H17        -3.2110   -2.1980    4.2750 hc        1 MOL      0.040800
     29 H18        -4.1940   -2.2790    5.7290 hc        1 MOL      0.040800
@<TRIPOS>BOND
     1    1    2 1   
     2    2    3 2   
     3    3    4 1   
     4    4    5 1   
     5    5    6 1   
     6    6    7 2   
     7    7    8 1   
     8    8    9 1   
     9    6   10 1   
    10    2   11 1   
    11    1   12 1   
    12    1   13 1   
    13    1   14 1   
    14    3   15 1   
    15    4   16 1   
    16    4   17 1   
    17    5   18 1   
    18    5   19 1   
    19    7   20 1   
    20    8   21 1   
    21    8   22 1   
    22    9   23 1   
    23   10   24 1   
    24   10   25 1   
    25   10   26 1   
    26   11   27 1   
    27   11   28 1   
    28   11   29 1   
@<TRIPOS>SUBSTRUCTURE
     1 MOL         1 TEMP              0 ****  ****    0 ROOT
