@<TRIPOS>MOLECULE
2,6-dimethoxyphenol
   21    21     1     0     0
SMALL
No Charge or Current Charge


@<TRIPOS>ATOM
      1 C1          1.3510   -2.1280   -2.1490 c3        1 MOL      0.120600
      2 O1          1.9390   -1.0220   -1.4740 os        1 MOL     -0.339800
      3 C2          1.8850   -1.0360   -0.1120 ca        1 MOL      0.066300
      4 C3          2.9210   -1.6310    0.6080 ca        1 MOL     -0.154100
      5 C4          2.8780   -1.6520    2.0020 ca        1 MOL     -0.125900
      6 C5          1.8000   -1.0790    2.6760 ca        1 MOL     -0.154100
      7 C6          0.7640   -0.4840    1.9550 ca        1 MOL      0.066300
      8 C7          0.8070   -0.4630    0.5610 ca        1 MOL      0.101900
      9 O2         -0.2060    0.1180   -0.1430 oh        1 MOL     -0.480300
     10 O3         -0.2840    0.0720    2.6250 os        1 MOL     -0.339800
     11 C8         -0.2490    0.0080    4.0500 c3        1 MOL      0.120600
     12 H1          1.4610   -1.9970   -3.2280 h1        1 MOL      0.043300
     13 H2          0.2930   -2.1970   -1.8850 h1        1 MOL      0.043300
     14 H3          1.8610   -3.0440   -1.8430 h1        1 MOL      0.043300
     15 H4          3.7640   -2.0790    0.0900 ha        1 MOL      0.143400
     16 H5          3.6850   -2.1150    2.5630 ha        1 MOL      0.137400
     17 H6          1.7730   -1.0990    3.7620 ha        1 MOL      0.143400
     18 H7         -0.8760    0.4690    0.4630 ho        1 MOL      0.434600
     19 H8         -1.1430    0.4880    4.4480 h1        1 MOL      0.043300
     20 H9          0.6480    0.5120    4.4060 h1        1 MOL      0.043300
     21 H10        -0.2280   -1.0400    4.3470 h1        1 MOL      0.043300
@<TRIPOS>BOND
     1    1    2 1   
     2    2    3 1   
     3    3    8 ar  
     4    3    4 ar  
     5    4    5 ar  
     6    5    6 ar  
     7    6    7 ar  
     8    7    8 ar  
     9    8    9 1   
    10    7   10 1   
    11   10   11 1   
    12    1   12 1   
    13    1   13 1   
    14    1   14 1   
    15    4   15 1   
    16    5   16 1   
    17    6   17 1   
    18    9   18 1   
    19   11   19 1   
    20   11   20 1   
    21   11   21 1   
@<TRIPOS>SUBSTRUCTURE
     1 MOL         1 TEMP              0 ****  ****    0 ROOT
