@<TRIPOS>MOLECULE
3-methylbutan-1-ol
   18    17     1     0     0
SMALL
No Charge or Current Charge


@<TRIPOS>ATOM
      1 C1          0.1990   -1.0770    0.0120 c3        1 MOL     -0.090700
      2 C2         -0.6860   -1.8170   -0.9950 c3        1 MOL     -0.065000
      3 C3         -2.1580   -1.6370   -0.6190 c3        1 MOL     -0.090700
      4 C4         -0.3810   -1.3240   -2.4190 c3        1 MOL     -0.081200
      5 C5          1.0650   -1.5440   -2.8470 c3        1 MOL      0.132900
      6 O1          1.2280   -1.0520   -4.1720 oh        1 MOL     -0.604600
      7 H1          1.2580   -1.1940   -0.2410 hc        1 MOL      0.034400
      8 H2          0.0480   -1.4580    1.0280 hc        1 MOL      0.034400
      9 H3         -0.0260   -0.0050    0.0140 hc        1 MOL      0.034400
     10 H4         -0.4440   -2.8850   -0.9330 hc        1 MOL      0.044100
     11 H5         -2.8140   -2.1570   -1.3250 hc        1 MOL      0.034400
     12 H6         -2.4320   -0.5760   -0.6220 hc        1 MOL      0.034400
     13 H7         -2.3620   -2.0210    0.3850 hc        1 MOL      0.034400
     14 H8         -0.6050   -0.2510   -2.4910 hc        1 MOL      0.054600
     15 H9         -1.0490   -1.8100   -3.1420 hc        1 MOL      0.054600
     16 H10         1.7540   -1.0030   -2.1900 h1        1 MOL      0.020800
     17 H11         1.3260   -2.6060   -2.8460 h1        1 MOL      0.020800
     18 H12         2.1550   -1.2060   -4.4150 ho        1 MOL      0.397900
@<TRIPOS>BOND
     1    1    2 1   
     2    2    3 1   
     3    2    4 1   
     4    4    5 1   
     5    5    6 1   
     6    1    7 1   
     7    1    8 1   
     8    1    9 1   
     9    2   10 1   
    10    3   11 1   
    11    3   12 1   
    12    3   13 1   
    13    4   14 1   
    14    4   15 1   
    15    5   16 1   
    16    5   17 1   
    17    6   18 1   
@<TRIPOS>SUBSTRUCTURE
     1 MOL         1 TEMP              0 ****  ****    0 ROOT
