@<TRIPOS>MOLECULE
ethylene
   10     9     1     0     0
SMALL
No Charge or Current Charge


@<TRIPOS>ATOM
      1 C1         -2.1460   -0.1940   -0.1210 c3        1 MOL      0.127000
      2 C2         -0.8940    0.4510    0.4420 c3        1 MOL      0.127000
      3 O1         -0.8120    1.7920   -0.0250 oh        1 MOL     -0.595600
      4 O2         -3.2830    0.5410    0.3170 oh        1 MOL     -0.595600
      5 H1         -2.2510   -1.2250    0.2300 h1        1 MOL      0.033200
      6 H2         -2.1270   -0.1760   -1.2140 h1        1 MOL      0.033200
      7 H3          0.0050   -0.0800    0.1120 h1        1 MOL      0.033200
      8 H4         -0.9310    0.4690    1.5350 h1        1 MOL      0.033200
      9 H5         -0.0030    2.1700    0.3540 ho        1 MOL      0.402100
     10 H6         -4.0610    0.1020   -0.0600 ho        1 MOL      0.402100
@<TRIPOS>BOND
     1    1    2 1   
     2    2    3 1   
     3    1    4 1   
     4    1    5 1   
     5    1    6 1   
     6    2    7 1   
     7    2    8 1   
     8    3    9 1   
     9    4   10 1   
@<TRIPOS>SUBSTRUCTURE
     1 MOL         1 TEMP              0 ****  ****    0 ROOT
