@<TRIPOS>MOLECULE
2-ethylphenol
   19    19     1     0     0
SMALL
No Charge or Current Charge


@<TRIPOS>ATOM
      1 C1          2.6520    0.2180   -2.1300 c3        1 MOL     -0.087100
      2 C2          1.9470   -1.0230   -1.6040 c3        1 MOL     -0.029500
      3 C3          1.8850   -1.0360   -0.1120 ca        1 MOL     -0.099100
      4 C4          2.9210   -1.6310    0.6080 ca        1 MOL     -0.098600
      5 C5          2.8780   -1.6520    2.0020 ca        1 MOL     -0.162200
      6 C6          1.8000   -1.0790    2.6760 ca        1 MOL     -0.095500
      7 C7          0.7640   -0.4840    1.9550 ca        1 MOL     -0.211300
      8 C8          0.8070   -0.4630    0.5610 ca        1 MOL      0.124800
      9 O1         -0.2140    0.1210   -0.1280 oh        1 MOL     -0.498100
     10 H1          2.6930    0.2180   -3.2240 hc        1 MOL      0.035500
     11 H2          3.6790    0.2580   -1.7530 hc        1 MOL      0.035500
     12 H3          2.1380    1.1310   -1.8130 hc        1 MOL      0.035500
     13 H4          2.4650   -1.9220   -1.9600 hc        1 MOL      0.051200
     14 H5          0.9320   -1.0750   -2.0160 hc        1 MOL      0.051200
     15 H6          3.7660   -2.0790    0.0930 ha        1 MOL      0.134100
     16 H7          3.6850   -2.1140    2.5640 ha        1 MOL      0.132700
     17 H8          1.7670   -1.0940    3.7610 ha        1 MOL      0.131500
     18 H9         -0.0740   -0.0390    2.4860 ha        1 MOL      0.131800
     19 H10        -0.8780    0.4670    0.4880 ho        1 MOL      0.417500
@<TRIPOS>BOND
     1    1    2 1   
     2    2    3 1   
     3    3    8 ar  
     4    3    4 ar  
     5    4    5 ar  
     6    5    6 ar  
     7    6    7 ar  
     8    7    8 ar  
     9    8    9 1   
    10    1   10 1   
    11    1   11 1   
    12    1   12 1   
    13    2   13 1   
    14    2   14 1   
    15    4   15 1   
    16    5   16 1   
    17    6   17 1   
    18    7   18 1   
    19    9   19 1   
@<TRIPOS>SUBSTRUCTURE
     1 MOL         1 TEMP              0 ****  ****    0 ROOT
