@<TRIPOS>MOLECULE
1,2,3,4-tetrachlorobenzene
   12    12     1     0     0
SMALL
No Charge or Current Charge


@<TRIPOS>ATOM
      1 C1          1.8850   -1.0360   -0.1120 ca        1 MOL     -0.111100
      2 C2          2.9210   -1.6310    0.6080 ca        1 MOL     -0.111000
      3 C3          2.8780   -1.6520    2.0020 ca        1 MOL      0.022100
      4 C4          1.8000   -1.0790    2.6760 ca        1 MOL      0.022600
      5 C5          0.7640   -0.4840    1.9550 ca        1 MOL      0.022600
      6 C6          0.8070   -0.4630    0.5610 ca        1 MOL      0.022100
      7 Cl1        -0.4390    0.2550   -0.4030 cl        1 MOL     -0.054600
      8 Cl2        -0.5860    0.2360    2.7840 cl        1 MOL     -0.038400
      9 Cl3         1.7590   -1.1110    4.4150 cl        1 MOL     -0.038400
     10 Cl4         4.2000   -2.4090    2.8240 cl        1 MOL     -0.054600
     11 H1          1.9350   -1.0290   -1.1980 ha        1 MOL      0.159300
     12 H2          3.7540   -2.0730    0.0660 ha        1 MOL      0.159300
@<TRIPOS>BOND
     1    1    6 ar  
     2    1    2 ar  
     3    2    3 ar  
     4    3    4 ar  
     5    4    5 ar  
     6    5    6 ar  
     7    6    7 1   
     8    5    8 1   
     9    4    9 1   
    10    3   10 1   
    11    1   11 1   
    12    2   12 1   
@<TRIPOS>SUBSTRUCTURE
     1 MOL         1 TEMP              0 ****  ****    0 ROOT
