@<TRIPOS>MOLECULE
ethanamine
   10     9     1     0     0
SMALL
No Charge or Current Charge


@<TRIPOS>ATOM
      1 C1          0.4070    0.1870    0.9990 c3        1 MOL     -0.137900
      2 C2          1.2110   -0.9760    1.4720 c3        1 MOL      0.147900
      3 N1          2.3150   -1.2360    0.5900 n3        1 MOL     -0.904400
      4 H1         -0.4330    0.3820    1.6750 hc        1 MOL      0.035900
      5 H2          1.0280    1.0870    0.9280 hc        1 MOL      0.035900
      6 H3         -0.0010   -0.0230    0.0040 hc        1 MOL      0.035900
      7 H4          0.5940   -1.8790    1.5090 h1        1 MOL      0.050900
      8 H5          1.6180   -0.7870    2.4690 h1        1 MOL      0.050900
      9 H6          3.1670   -0.7090    0.6990 hn        1 MOL      0.342400
     10 H7          2.1620   -1.7850   -0.2420 hn        1 MOL      0.342400
@<TRIPOS>BOND
     1    1    2 1   
     2    2    3 1   
     3    1    4 1   
     4    1    5 1   
     5    1    6 1   
     6    2    7 1   
     7    2    8 1   
     8    3    9 1   
     9    3   10 1   
@<TRIPOS>SUBSTRUCTURE
     1 MOL         1 TEMP              0 ****  ****    0 ROOT
