@<TRIPOS>MOLECULE
methylcyclopentane
   18    18     1     0     0
SMALL
No Charge or Current Charge


@<TRIPOS>ATOM
      1 C1          0.5910   -1.1930   -4.1770 c3        1 MOL     -0.084000
      2 C2          0.0450   -0.9980   -2.7730 c3        1 MOL     -0.071600
      3 C3          0.6370    0.2130   -2.0600 c3        1 MOL     -0.077500
      4 C4         -0.3400    0.4880   -0.9210 c3        1 MOL     -0.080700
      5 C5         -1.6800   -0.1060   -1.3570 c3        1 MOL     -0.080700
      6 C6         -1.4490   -0.6930   -2.7460 c3        1 MOL     -0.077500
      7 H1          1.6630   -1.4090   -4.1450 hc        1 MOL      0.033500
      8 H2          0.0860   -2.0270   -4.6730 hc        1 MOL      0.033500
      9 H3          0.4390   -0.2910   -4.7770 hc        1 MOL      0.033500
     10 H4          0.2420   -1.9010   -2.1810 hc        1 MOL      0.044400
     11 H5          1.6520    0.0270   -1.6940 hc        1 MOL      0.042000
     12 H6          0.6760    1.0810   -2.7300 hc        1 MOL      0.042000
     13 H7          0.0010    0.0010    0.0000 hc        1 MOL      0.039800
     14 H8         -0.4170    1.5600   -0.7140 hc        1 MOL      0.039800
     15 H9         -1.9820   -0.8930   -0.6570 hc        1 MOL      0.039800
     16 H10        -2.4750    0.6460   -1.3690 hc        1 MOL      0.039800
     17 H11        -2.0610   -1.5830   -2.9210 hc        1 MOL      0.042000
     18 H12        -1.7110    0.0500   -3.5100 hc        1 MOL      0.042000
@<TRIPOS>BOND
     1    1    2 1   
     2    2    6 1   
     3    2    3 1   
     4    3    4 1   
     5    4    5 1   
     6    5    6 1   
     7    1    7 1   
     8    1    8 1   
     9    1    9 1   
    10    2   10 1   
    11    3   11 1   
    12    3   12 1   
    13    4   13 1   
    14    4   14 1   
    15    5   15 1   
    16    5   16 1   
    17    6   17 1   
    18    6   18 1   
@<TRIPOS>SUBSTRUCTURE
     1 MOL         1 TEMP              0 ****  ****    0 ROOT
