@<TRIPOS>MOLECULE
1-chloro-2-(2-chloroethoxy)ethane
   15    14     1     0     0
SMALL
No Charge or Current Charge


@<TRIPOS>ATOM
      1 C1         -0.7820   -0.2450   -0.7260 c3        1 MOL      0.119400
      2 C2          0.2690    0.0620    0.3250 c3        1 MOL      0.030300
      3 Cl1         1.3540   -1.3320    0.5620 cl        1 MOL     -0.182100
      4 O1         -0.1500   -0.5460   -1.9630 os        1 MOL     -0.423100
      5 C3         -1.1010   -0.8400   -2.9770 c3        1 MOL      0.119400
      6 C4         -0.3840   -1.1540   -4.2770 c3        1 MOL      0.030300
      7 Cl2         0.6040    0.2320   -4.8060 cl        1 MOL     -0.182100
      8 H1         -1.4140   -1.0890   -0.4320 h1        1 MOL      0.043600
      9 H2         -1.4190    0.6310   -0.8780 h1        1 MOL      0.043600
     10 H3          0.8940    0.9090    0.0260 h1        1 MOL      0.078400
     11 H4         -0.1980    0.2800    1.2890 h1        1 MOL      0.078400
     12 H5         -1.7840    0.0090   -3.0860 h1        1 MOL      0.043600
     13 H6         -1.6780   -1.7120   -2.6530 h1        1 MOL      0.043600
     14 H7          0.2930   -2.0060   -4.1610 h1        1 MOL      0.078400
     15 H8         -1.1010   -1.3680   -5.0740 h1        1 MOL      0.078400
@<TRIPOS>BOND
     1    1    2 1   
     2    2    3 1   
     3    1    4 1   
     4    4    5 1   
     5    5    6 1   
     6    6    7 1   
     7    1    8 1   
     8    1    9 1   
     9    2   10 1   
    10    2   11 1   
    11    5   12 1   
    12    5   13 1   
    13    6   14 1   
    14    6   15 1   
@<TRIPOS>SUBSTRUCTURE
     1 MOL         1 TEMP              0 ****  ****    0 ROOT
