@<TRIPOS>MOLECULE
1,2,3,4,6,7,8,9-octachlorodibenzo-p-dioxin
   22    24     1     0     0
SMALL
No Charge or Current Charge


@<TRIPOS>ATOM
      1 C1         -2.7270   -1.9050    0.6890 ca        1 MOL      0.079300
      2 C2         -3.5800   -0.9100    1.1630 ca        1 MOL      0.079400
      3 C3         -3.1490    0.4150    1.2200 ca        1 MOL      0.032200
      4 C4         -1.8580    0.7400    0.8000 ca        1 MOL      0.022100
      5 C5         -1.0040   -0.2570    0.3260 ca        1 MOL      0.022100
      6 C6         -1.4370   -1.5820    0.2690 ca        1 MOL      0.032200
      7 Cl1        -0.4030   -2.8500   -0.3160 cl        1 MOL     -0.014300
      8 Cl2         0.6080    0.1470   -0.1990 cl        1 MOL     -0.025000
      9 Cl3        -1.3190    2.3950    0.8710 cl        1 MOL     -0.025000
     10 Cl4        -4.2410    1.6280    1.8160 cl        1 MOL     -0.014300
     11 O1         -4.8560   -1.1830    1.5850 os        1 MOL     -0.188700
     12 C7         -5.2390   -2.4980    1.5120 ca        1 MOL      0.079400
     13 C8         -4.3860   -3.4940    1.0380 ca        1 MOL      0.079400
     14 C9         -4.8170   -4.8180    0.9820 ca        1 MOL      0.032200
     15 C10        -6.1070   -5.1430    1.4010 ca        1 MOL      0.022100
     16 C11        -6.9620   -4.1460    1.8750 ca        1 MOL      0.022100
     17 C12        -6.5290   -2.8210    1.9320 ca        1 MOL      0.032200
     18 Cl5        -7.5640   -1.5530    2.5160 cl        1 MOL     -0.014300
     19 Cl6        -8.5730   -4.5510    2.4000 cl        1 MOL     -0.025000
     20 Cl7        -6.6460   -6.7990    1.3300 cl        1 MOL     -0.025000
     21 Cl8        -3.7240   -6.0320    0.3850 cl        1 MOL     -0.014300
     22 O2         -3.1090   -3.2200    0.6160 os        1 MOL     -0.188700
@<TRIPOS>BOND
     1    1    6 ar  
     2    1   22 1   
     3    1    2 ar  
     4    2    3 ar  
     5    3    4 ar  
     6    4    5 ar  
     7    5    6 ar  
     8    6    7 1   
     9    5    8 1   
    10    4    9 1   
    11    3   10 1   
    12    2   11 1   
    13   11   12 1   
    14   12   17 ar  
    15   12   13 ar  
    16   13   14 ar  
    17   14   15 ar  
    18   15   16 ar  
    19   16   17 ar  
    20   17   18 1   
    21   16   19 1   
    22   15   20 1   
    23   14   21 1   
    24   13   22 1   
@<TRIPOS>SUBSTRUCTURE
     1 MOL         1 TEMP              0 ****  ****    0 ROOT
