@<TRIPOS>MOLECULE
methyl
   11    10     1     0     0
SMALL
No Charge or Current Charge


@<TRIPOS>ATOM
      1 C1         -0.4490   -0.9870    0.1660 c3        1 MOL      0.121900
      2 O1         -0.8570   -1.1190    1.5320 os        1 MOL     -0.403400
      3 C2          0.1400   -1.0130    2.4550 c         1 MOL      0.590100
      4 O2          1.3260   -0.8200    2.2250 o         1 MOL     -0.467900
      5 C3         -0.4290   -1.1780    3.8270 c3        1 MOL      0.605700
      6 F1         -1.7690   -1.3870    3.8020 f         1 MOL     -0.212100
      7 F2          0.1220   -2.2320    4.4810 f         1 MOL     -0.212100
      8 F3         -0.2160   -0.0810    4.5960 f         1 MOL     -0.212100
      9 H1         -1.3190   -1.0870   -0.4860 h1        1 MOL      0.063300
     10 H2          0.2880   -1.7580   -0.0700 h1        1 MOL      0.063300
     11 H3         -0.0000   -0.0010    0.0230 h1        1 MOL      0.063300
@<TRIPOS>BOND
     1    1    2 1   
     2    2    3 1   
     3    3    4 2   
     4    3    5 1   
     5    5    6 1   
     6    5    7 1   
     7    5    8 1   
     8    1    9 1   
     9    1   10 1   
    10    1   11 1   
@<TRIPOS>SUBSTRUCTURE
     1 MOL         1 TEMP              0 ****  ****    0 ROOT
