@<TRIPOS>MOLECULE
acetaldehyde
    7     6     1     0     0
SMALL
No Charge or Current Charge


@<TRIPOS>ATOM
      1 C1         -0.5890   -0.9200   -0.0340 c3        1 MOL     -0.221100
      2 C2         -1.5030   -0.9600    1.1510 c         1 MOL      0.563200
      3 O1         -1.4760   -1.8490    1.9960 o         1 MOL     -0.526800
      4 H1         -1.0570   -1.4520   -0.8650 hc        1 MOL      0.064700
      5 H2         -0.3990    0.1160   -0.3260 hc        1 MOL      0.064700
      6 H3          0.3560   -1.4030    0.2270 hc        1 MOL      0.064700
      7 H4         -2.2230   -0.1270    1.2270 h4        1 MOL     -0.009400
@<TRIPOS>BOND
     1    1    2 1   
     2    2    3 2   
     3    1    4 1   
     4    1    5 1   
     5    1    6 1   
     6    2    7 1   
@<TRIPOS>SUBSTRUCTURE
     1 MOL         1 TEMP              0 ****  ****    0 ROOT
