@<TRIPOS>MOLECULE
ethylene
    6     5     1     0     0
SMALL
No Charge or Current Charge


@<TRIPOS>ATOM
      1 C1          0.2840    1.0300   -0.1840 c2        1 MOL     -0.218000
      2 C2         -0.6400    1.9560   -0.4470 c2        1 MOL     -0.217900
      3 H1          1.3360    1.2900   -0.1500 ha        1 MOL      0.109000
      4 H2          0.0000    0.0000    0.0000 ha        1 MOL      0.109000
      5 H3         -1.6920    1.6950   -0.4810 ha        1 MOL      0.109000
      6 H4         -0.3560    2.9860   -0.6320 ha        1 MOL      0.109000
@<TRIPOS>BOND
     1    1    2 2   
     2    1    3 1   
     3    1    4 1   
     4    2    5 1   
     5    2    6 1   
@<TRIPOS>SUBSTRUCTURE
     1 MOL         1 TEMP              0 ****  ****    0 ROOT
