@<TRIPOS>MOLECULE
pentan-1-amine
   19    18     1     0     0
SMALL
No Charge or Current Charge


@<TRIPOS>ATOM
      1 C1         -0.0030   -0.6400    0.8880 c3        1 MOL     -0.092400
      2 C2          1.2680   -0.4530    1.7000 c3        1 MOL     -0.080200
      3 C3          2.5110   -0.8070    0.8830 c3        1 MOL     -0.074900
      4 C4          3.7880   -0.6170    1.7030 c3        1 MOL     -0.122300
      5 C5          5.0270   -0.9710    0.8890 c3        1 MOL      0.151800
      6 N1          6.2300   -0.7940    1.6550 n3        1 MOL     -0.906900
      7 H1         -0.8790   -0.3810    1.4910 hc        1 MOL      0.033400
      8 H2         -0.0000    0.0000    0.0000 hc        1 MOL      0.033400
      9 H3         -0.1110   -1.6800    0.5620 hc        1 MOL      0.033400
     10 H4          1.2190   -1.0820    2.5960 hc        1 MOL      0.037800
     11 H5          1.3290    0.5880    2.0380 hc        1 MOL      0.037800
     12 H6          2.5530   -0.1780   -0.0140 hc        1 MOL      0.040800
     13 H7          2.4430   -1.8480    0.5440 hc        1 MOL      0.040800
     14 H8          3.7480   -1.2430    2.6030 hc        1 MOL      0.037700
     15 H9          3.8570    0.4220    2.0460 hc        1 MOL      0.037700
     16 H10         5.1090   -0.3350    0.0010 h1        1 MOL      0.051600
     17 H11         4.9960   -2.0160    0.5660 h1        1 MOL      0.051600
     18 H12         6.5320   -1.5300    2.2740 hn        1 MOL      0.344300
     19 H13         6.6410    0.1240    1.7210 hn        1 MOL      0.344300
@<TRIPOS>BOND
     1    1    2 1   
     2    2    3 1   
     3    3    4 1   
     4    4    5 1   
     5    5    6 1   
     6    1    7 1   
     7    1    8 1   
     8    1    9 1   
     9    2   10 1   
    10    2   11 1   
    11    3   12 1   
    12    3   13 1   
    13    4   14 1   
    14    4   15 1   
    15    5   16 1   
    16    5   17 1   
    17    6   18 1   
    18    6   19 1   
@<TRIPOS>SUBSTRUCTURE
     1 MOL         1 TEMP              0 ****  ****    0 ROOT
