@<TRIPOS>MOLECULE
5-chloro-1H-pyrimidine-2,4-dione
   12    12     1     0     0
SMALL
No Charge or Current Charge


@<TRIPOS>ATOM
      1 C1          0.6680    1.3560   -0.0610 cc        1 MOL      0.049200
      2 C2         -0.2940    0.9370    0.7650 cd        1 MOL     -0.175600
      3 C3         -0.8090   -0.4510    0.6460 c         1 MOL      0.719300
      4 O1         -1.6920   -0.8860    1.3790 o         1 MOL     -0.582300
      5 N1         -0.2060   -1.2000   -0.3590 n         1 MOL     -0.584400
      6 C4          0.8020   -0.7660   -1.2250 c         1 MOL      0.803600
      7 O2          1.2900   -1.4900   -2.0940 o         1 MOL     -0.627600
      8 N2          1.2050    0.5460   -1.0240 n         1 MOL     -0.465200
      9 Cl1        -0.9660    1.9550    1.9730 cl        1 MOL     -0.028000
     10 H1          1.0830    2.3570   -0.0200 h4        1 MOL      0.172200
     11 H2         -0.5290   -2.1570   -0.4750 hn        1 MOL      0.358600
     12 H3          1.9350    0.9330   -1.6150 hn        1 MOL      0.360300
@<TRIPOS>BOND
     1    1    8 1   
     2    1    2 2   
     3    2    3 1   
     4    3    4 2   
     5    3    5 1   
     6    5    6 1   
     7    6    7 2   
     8    6    8 1   
     9    2    9 1   
    10    1   10 1   
    11    5   11 1   
    12    8   12 1   
@<TRIPOS>SUBSTRUCTURE
     1 MOL         1 TEMP              0 ****  ****    0 ROOT
