@<TRIPOS>MOLECULE
quinoline
   17    18     1     0     0
SMALL
No Charge or Current Charge


@<TRIPOS>ATOM
      1 C1          0.1300    2.0980   -0.4530 ca        1 MOL     -0.127000
      2 C2         -0.5470    0.8980   -0.2740 ca        1 MOL     -0.123900
      3 C3         -1.9320    0.8440   -0.4460 ca        1 MOL     -0.164200
      4 C4         -2.6680    1.9720   -0.7970 ca        1 MOL      0.392900
      5 C5         -1.9750    3.1880   -0.9770 ca        1 MOL     -0.147900
      6 C6         -0.5810    3.2420   -0.8040 ca        1 MOL     -0.111700
      7 C7         -2.7150    4.3240   -1.3300 ca        1 MOL     -0.080100
      8 C8         -4.0900    4.2380   -1.4940 ca        1 MOL     -0.249900
      9 C9         -4.6800    3.0060   -1.2960 ca        1 MOL      0.411100
     10 N1         -4.0030    1.8860   -0.9550 nb        1 MOL     -0.657100
     11 H1          1.2070    2.1430   -0.3220 ha        1 MOL      0.134400
     12 H2          0.0000    0.0000   -0.0010 ha        1 MOL      0.135400
     13 H3         -2.4390   -0.1080   -0.3000 ha        1 MOL      0.150700
     14 H4         -0.0420    4.1760   -0.9410 ha        1 MOL      0.133700
     15 H5         -2.2240    5.2820   -1.4810 ha        1 MOL      0.138200
     16 H6         -4.6780    5.1060   -1.7680 ha        1 MOL      0.143600
     17 H7         -5.7520    2.8780   -1.4110 h4        1 MOL      0.021900
@<TRIPOS>BOND
     1    1    6 ar  
     2    1    2 ar  
     3    2    3 ar  
     4    3    4 ar  
     5    4   10 ar  
     6    4    5 ar  
     7    5    6 ar  
     8    5    7 ar  
     9    7    8 ar  
    10    8    9 ar  
    11    9   10 ar  
    12    1   11 1   
    13    2   12 1   
    14    3   13 1   
    15    6   14 1   
    16    7   15 1   
    17    8   16 1   
    18    9   17 1   
@<TRIPOS>SUBSTRUCTURE
     1 MOL         1 TEMP              0 ****  ****    0 ROOT
