@<TRIPOS>MOLECULE
heptan-4-one
   22    21     1     0     0
SMALL
No Charge or Current Charge


@<TRIPOS>ATOM
      1 C1          1.0140    0.3940    0.1160 c3        1 MOL     -0.092800
      2 C2          1.1170    1.2150    1.3910 c3        1 MOL     -0.076000
      3 C3          2.5200    1.7870    1.5770 c3        1 MOL     -0.179500
      4 C4          2.6510    2.6140    2.8470 c         1 MOL      0.560800
      5 O1          1.7090    2.7840    3.6190 o         1 MOL     -0.530600
      6 C5          4.0250    3.2150    3.0970 c3        1 MOL     -0.179500
      7 C6          4.0830    4.0300    4.3860 c3        1 MOL     -0.076000
      8 C7          5.4660    4.6190    4.6120 c3        1 MOL     -0.092800
      9 H1          0.0050   -0.0120   -0.0080 hc        1 MOL      0.033800
     10 H2          1.2400    1.0170   -0.7550 hc        1 MOL      0.033800
     11 H3          1.7220   -0.4410    0.1300 hc        1 MOL      0.033800
     12 H4          0.8540    0.5860    2.2490 hc        1 MOL      0.053300
     13 H5          0.3830    2.0290    1.3580 hc        1 MOL      0.053300
     14 H6          2.7750    2.4310    0.7280 hc        1 MOL      0.062500
     15 H7          3.2510    0.9730    1.6290 hc        1 MOL      0.062500
     16 H8          4.2740    3.8530    2.2420 hc        1 MOL      0.062500
     17 H9          4.7480    2.3940    3.1430 hc        1 MOL      0.062500
     18 H10         3.3460    4.8420    4.3490 hc        1 MOL      0.053300
     19 H11         3.8150    3.3980    5.2410 hc        1 MOL      0.053300
     20 H12         5.4980    5.2020    5.5380 hc        1 MOL      0.033800
     21 H13         6.2100    3.8200    4.6870 hc        1 MOL      0.033800
     22 H14         5.7530    5.2740    3.7830 hc        1 MOL      0.033800
@<TRIPOS>BOND
     1    1    2 1   
     2    2    3 1   
     3    3    4 1   
     4    4    5 2   
     5    4    6 1   
     6    6    7 1   
     7    7    8 1   
     8    1    9 1   
     9    1   10 1   
    10    1   11 1   
    11    2   12 1   
    12    2   13 1   
    13    3   14 1   
    14    3   15 1   
    15    6   16 1   
    16    6   17 1   
    17    7   18 1   
    18    7   19 1   
    19    8   20 1   
    20    8   21 1   
    21    8   22 1   
@<TRIPOS>SUBSTRUCTURE
     1 MOL         1 TEMP              0 ****  ****    0 ROOT
