@<TRIPOS>MOLECULE
(2S)-1,1,1-trifluoropropan-2-ol
   12    11     1     0     0
SMALL
No Charge or Current Charge


@<TRIPOS>ATOM
      1 C1         -0.7760    0.5920    0.8350 c3        1 MOL     -0.141200
      2 C2         -0.2370   -0.1770   -0.3620 c3        1 MOL      0.111000
      3 H1         -0.9250   -0.9880   -0.6240 h1        1 MOL      0.071900
      4 C3         -0.0320    0.7200   -1.5650 c3        1 MOL      0.634500
      5 F1          0.8490    1.7060   -1.2890 f         1 MOL     -0.232700
      6 F2          0.4600    0.0180   -2.6100 f         1 MOL     -0.232700
      7 F3         -1.1870    1.2950   -1.9600 f         1 MOL     -0.232700
      8 O1          1.0170   -0.7580   -0.0210 oh        1 MOL     -0.584400
      9 H2         -0.1020    1.4090    1.1140 hc        1 MOL      0.062500
     10 H3         -0.9130   -0.0630    1.7010 hc        1 MOL      0.062500
     11 H4         -1.7400    1.0510    0.5910 hc        1 MOL      0.062500
     12 H5          0.8530   -1.3520    0.7280 ho        1 MOL      0.418700
@<TRIPOS>BOND
     1    1    2 1   
     2    2    3 1   
     3    2    4 1   
     4    4    5 1   
     5    4    6 1   
     6    4    7 1   
     7    2    8 1   
     8    1    9 1   
     9    1   10 1   
    10    1   11 1   
    11    8   12 1   
@<TRIPOS>SUBSTRUCTURE
     1 MOL         1 TEMP              0 ****  ****    0 ROOT
