@<TRIPOS>MOLECULE
p-cresol
   16    16     1     0     0
SMALL
No Charge or Current Charge


@<TRIPOS>ATOM
      1 C1          1.9290   -1.0150   -1.6030 c3        1 MOL     -0.048300
      2 C2          1.8850   -1.0360   -0.1120 ca        1 MOL     -0.112500
      3 C3          2.9210   -1.6310    0.6080 ca        1 MOL     -0.094900
      4 C4          2.8780   -1.6520    2.0020 ca        1 MOL     -0.181400
      5 C5          1.8000   -1.0790    2.6760 ca        1 MOL      0.118300
      6 C6          0.7640   -0.4840    1.9550 ca        1 MOL     -0.181400
      7 C7          0.8070   -0.4630    0.5610 ca        1 MOL     -0.094900
      8 O1          1.7580   -1.1000    4.0360 oh        1 MOL     -0.498400
      9 H1          2.4360   -0.1090   -1.9500 hc        1 MOL      0.042500
     10 H2          2.4620   -1.8900   -1.9910 hc        1 MOL      0.042500
     11 H3          0.9190   -1.0390   -2.0240 hc        1 MOL      0.042500
     12 H4          3.7660   -2.0790    0.0920 ha        1 MOL      0.133200
     13 H5          3.6880   -2.1160    2.5580 ha        1 MOL      0.140900
     14 H6         -0.0790   -0.0350    2.4740 ha        1 MOL      0.140900
     15 H7         -0.0050    0.0030    0.0080 ha        1 MOL      0.133200
     16 H8          0.9510   -0.6650    4.3540 ho        1 MOL      0.417900
@<TRIPOS>BOND
     1    1    2 1   
     2    2    7 ar  
     3    2    3 ar  
     4    3    4 ar  
     5    4    5 ar  
     6    5    6 ar  
     7    6    7 ar  
     8    5    8 1   
     9    1    9 1   
    10    1   10 1   
    11    1   11 1   
    12    3   12 1   
    13    4   13 1   
    14    6   14 1   
    15    7   15 1   
    16    8   16 1   
@<TRIPOS>SUBSTRUCTURE
     1 MOL         1 TEMP              0 ****  ****    0 ROOT
