@<TRIPOS>MOLECULE
butyl
   28    28     1     0     0
SMALL
No Charge or Current Charge


@<TRIPOS>ATOM
      1 C1         -2.1220   -2.4490    4.1680 c3        1 MOL     -0.097000
      2 C2         -1.8670   -2.7560    2.7000 c3        1 MOL     -0.075200
      3 C3         -3.1550   -2.6880    1.8840 c3        1 MOL     -0.106700
      4 C4         -2.9050   -2.9950    0.4140 c3        1 MOL      0.133500
      5 O1         -4.1380   -2.9160   -0.2880 os        1 MOL     -0.435900
      6 C5         -4.0820   -3.1660   -1.6250 c         1 MOL      0.649900
      7 O2         -3.0790   -3.4490   -2.2610 o         1 MOL     -0.533900
      8 C6         -5.4290   -3.0510   -2.2390 ca        1 MOL     -0.156200
      9 C7         -5.5940   -3.2700   -3.6070 ca        1 MOL     -0.045800
     10 C8         -6.8600   -3.1610   -4.1830 ca        1 MOL     -0.194100
     11 C9         -7.9610   -2.8340   -3.3920 ca        1 MOL      0.147200
     12 C10        -7.7960   -2.6150   -2.0240 ca        1 MOL     -0.194100
     13 C11        -6.5300   -2.7230   -1.4480 ca        1 MOL     -0.045800
     14 O3         -9.1960   -2.7280   -3.9540 oh        1 MOL     -0.491200
     15 H1         -1.1940   -2.4990    4.7460 hc        1 MOL      0.036100
     16 H2         -2.5490   -1.4480    4.2910 hc        1 MOL      0.036100
     17 H3         -2.8250   -3.1730    4.5900 hc        1 MOL      0.036100
     18 H4         -1.1370   -2.0400    2.3050 hc        1 MOL      0.040600
     19 H5         -1.4230   -3.7540    2.6140 hc        1 MOL      0.040600
     20 H6         -3.8950   -3.3940    2.2810 hc        1 MOL      0.053200
     21 H7         -3.6110   -1.6940    1.9750 hc        1 MOL      0.053200
     22 H8         -2.2080   -2.2720   -0.0230 h1        1 MOL      0.065600
     23 H9         -2.4970   -4.0030    0.2890 h1        1 MOL      0.065600
     24 H10        -4.7430   -3.5250   -4.2330 ha        1 MOL      0.148900
     25 H11        -6.9820   -3.3340   -5.2490 ha        1 MOL      0.148600
     26 H12        -8.6500   -2.3590   -1.4030 ha        1 MOL      0.148600
     27 H13        -6.4130   -2.5510   -0.3810 ha        1 MOL      0.148900
     28 H14        -9.1490   -2.9080   -4.9060 ho        1 MOL      0.423200
@<TRIPOS>BOND
     1    1    2 1   
     2    2    3 1   
     3    3    4 1   
     4    4    5 1   
     5    5    6 1   
     6    6    7 2   
     7    6    8 1   
     8    8   13 ar  
     9    8    9 ar  
    10    9   10 ar  
    11   10   11 ar  
    12   11   12 ar  
    13   12   13 ar  
    14   11   14 1   
    15    1   15 1   
    16    1   16 1   
    17    1   17 1   
    18    2   18 1   
    19    2   19 1   
    20    3   20 1   
    21    3   21 1   
    22    4   22 1   
    23    4   23 1   
    24    9   24 1   
    25   10   25 1   
    26   12   26 1   
    27   13   27 1   
    28   14   28 1   
@<TRIPOS>SUBSTRUCTURE
     1 MOL         1 TEMP              0 ****  ****    0 ROOT
