@<TRIPOS>MOLECULE
5-iodo-1H-pyrimidine-2,4-dione
   12    12     1     0     0
SMALL
No Charge or Current Charge


@<TRIPOS>ATOM
      1 C1          0.6800    1.3320   -0.0630 cc        1 MOL      0.091100
      2 C2         -0.4160    0.9700    0.6160 cd        1 MOL     -0.191400
      3 C3         -0.8890   -0.4430    0.5030 c         1 MOL      0.726100
      4 O1         -1.8850   -0.8530    1.0940 o         1 MOL     -0.585700
      5 N1         -0.1140   -1.2510   -0.3220 n         1 MOL     -0.584200
      6 C4          1.0280   -0.8640   -1.0260 c         1 MOL      0.803700
      7 O2          1.6640   -1.6400   -1.7400 o         1 MOL     -0.625800
      8 N2          1.3820    0.4640   -0.8540 n         1 MOL     -0.465700
      9 I1         -1.4500    2.2860    1.7930 i         1 MOL     -0.056000
     10 H1          1.0860    2.3370   -0.0320 h4        1 MOL      0.170200
     11 H2         -0.4080   -2.2190   -0.4220 hn        1 MOL      0.358300
     12 H3          2.2030    0.8200   -1.3350 hn        1 MOL      0.359500
@<TRIPOS>BOND
     1    1    8 1   
     2    1    2 2   
     3    2    3 1   
     4    3    4 2   
     5    3    5 1   
     6    5    6 1   
     7    6    7 2   
     8    6    8 1   
     9    2    9 1   
    10    1   10 1   
    11    5   11 1   
    12    8   12 1   
@<TRIPOS>SUBSTRUCTURE
     1 MOL         1 TEMP              0 ****  ****    0 ROOT
