@<TRIPOS>MOLECULE
propylbenzene
   21    21     1     0     0
SMALL
No Charge or Current Charge


@<TRIPOS>ATOM
      1 C1          2.6810    0.2610   -3.6440 c3        1 MOL     -0.093500
      2 C2          2.6350    0.2400   -2.1240 c3        1 MOL     -0.077000
      3 C3          1.9310   -1.0140   -1.6030 c3        1 MOL     -0.037500
      4 C4          1.8850   -1.0360   -0.1120 ca        1 MOL     -0.077500
      5 C5          2.9210   -1.6310    0.6080 ca        1 MOL     -0.127700
      6 C6          2.8780   -1.6520    2.0020 ca        1 MOL     -0.128500
      7 C7          1.8000   -1.0790    2.6760 ca        1 MOL     -0.133600
      8 C8          0.7640   -0.4840    1.9550 ca        1 MOL     -0.128500
      9 C9          0.8070   -0.4630    0.5610 ca        1 MOL     -0.127700
     10 H1          3.1860    1.1610   -4.0090 hc        1 MOL      0.033400
     11 H2          3.2120   -0.6130   -4.0320 hc        1 MOL      0.033400
     12 H3          1.6660    0.2520   -4.0540 hc        1 MOL      0.033400
     13 H4          2.1180    1.1390   -1.7680 hc        1 MOL      0.043300
     14 H5          3.6590    0.2890   -1.7340 hc        1 MOL      0.043300
     15 H6          2.4470   -1.9100   -1.9710 hc        1 MOL      0.046800
     16 H7          0.9110   -1.0620   -2.0060 hc        1 MOL      0.046800
     17 H8          3.7650   -2.0800    0.0910 ha        1 MOL      0.130600
     18 H9          3.6850   -2.1150    2.5630 ha        1 MOL      0.130000
     19 H10         1.7660   -1.0950    3.7610 ha        1 MOL      0.129700
     20 H11        -0.0760   -0.0380    2.4790 ha        1 MOL      0.130000
     21 H12        -0.0050    0.0030    0.0080 ha        1 MOL      0.130600
@<TRIPOS>BOND
     1    1    2 1   
     2    2    3 1   
     3    3    4 1   
     4    4    9 ar  
     5    4    5 ar  
     6    5    6 ar  
     7    6    7 ar  
     8    7    8 ar  
     9    8    9 ar  
    10    1   10 1   
    11    1   11 1   
    12    1   12 1   
    13    2   13 1   
    14    2   14 1   
    15    3   15 1   
    16    3   16 1   
    17    5   17 1   
    18    6   18 1   
    19    7   19 1   
    20    8   20 1   
    21    9   21 1   
@<TRIPOS>SUBSTRUCTURE
     1 MOL         1 TEMP              0 ****  ****    0 ROOT
