@<TRIPOS>MOLECULE
2-methylpentane
   20    19     1     0     0
SMALL
No Charge or Current Charge


@<TRIPOS>ATOM
      1 C1          0.7500   -0.2570   -0.6070 c3        1 MOL     -0.092300
      2 C2          0.8430    0.4610   -1.9450 c3        1 MOL     -0.080800
      3 C3          0.8300    1.9810   -1.7630 c3        1 MOL     -0.074500
      4 C4          0.9220    2.7580   -3.0900 c3        1 MOL     -0.067700
      5 C5          2.2230    2.3980   -3.8120 c3        1 MOL     -0.090100
      6 C6          0.8470    4.2720   -2.8860 c3        1 MOL     -0.090100
      7 H1          0.7600   -1.3440   -0.7430 hc        1 MOL      0.032400
      8 H2          1.5870    0.0160    0.0440 hc        1 MOL      0.032400
      9 H3         -0.1800    0.0120   -0.0960 hc        1 MOL      0.032400
     10 H4          1.7640    0.1540   -2.4540 hc        1 MOL      0.038900
     11 H5          0.0010    0.1440   -2.5690 hc        1 MOL      0.038900
     12 H6         -0.0790    2.2750   -1.2230 hc        1 MOL      0.038800
     13 H7          1.6780    2.2660   -1.1280 hc        1 MOL      0.038800
     14 H8          0.0860    2.4560   -3.7330 hc        1 MOL      0.044600
     15 H9          2.3060    2.9430   -4.7590 hc        1 MOL      0.033000
     16 H10         2.2730    1.3260   -4.0310 hc        1 MOL      0.033000
     17 H11         3.0930    2.6600   -3.2010 hc        1 MOL      0.033000
     18 H12         0.9150    4.8050   -3.8410 hc        1 MOL      0.033000
     19 H13        -0.0980    4.5530   -2.4090 hc        1 MOL      0.033000
     20 H14         1.6540    4.6280   -2.2390 hc        1 MOL      0.033000
@<TRIPOS>BOND
     1    1    2 1   
     2    2    3 1   
     3    3    4 1   
     4    4    5 1   
     5    4    6 1   
     6    1    7 1   
     7    1    8 1   
     8    1    9 1   
     9    2   10 1   
    10    2   11 1   
    11    3   12 1   
    12    3   13 1   
    13    4   14 1   
    14    5   15 1   
    15    5   16 1   
    16    5   17 1   
    17    6   18 1   
    18    6   19 1   
    19    6   20 1   
@<TRIPOS>SUBSTRUCTURE
     1 MOL         1 TEMP              0 ****  ****    0 ROOT
