@<TRIPOS>MOLECULE
[(1R)-1,2,2-trifluoroethoxy]benzene
   19    19     1     0     0
SMALL
No Charge or Current Charge


@<TRIPOS>ATOM
      1 C1          1.8850   -1.0360   -0.1120 ca        1 MOL     -0.148700
      2 C2          2.9210   -1.6310    0.6080 ca        1 MOL     -0.102700
      3 C3          2.8780   -1.6520    2.0020 ca        1 MOL     -0.164200
      4 C4          1.8000   -1.0790    2.6760 ca        1 MOL      0.110300
      5 C5          0.7640   -0.4840    1.9550 ca        1 MOL     -0.164200
      6 C6          0.8070   -0.4630    0.5610 ca        1 MOL     -0.102700
      7 O1          1.7590   -1.0980    4.0360 os        1 MOL     -0.348900
      8 C7          3.0020   -1.0830    4.7400 c3        1 MOL      0.319000
      9 H1          3.7800   -0.5500    4.1800 h2        1 MOL      0.084300
     10 C8          2.7980   -0.4230    6.0840 c3        1 MOL      0.388200
     11 F1          3.9700   -0.4020    6.7630 f         1 MOL     -0.226600
     12 F2          1.9270   -1.1550    6.8230 f         1 MOL     -0.226600
     13 F3          3.3980   -2.3660    4.9520 f         1 MOL     -0.217900
     14 H2          1.9180   -1.0210   -1.1980 ha        1 MOL      0.139000
     15 H3          3.7600   -2.0770    0.0830 ha        1 MOL      0.136200
     16 H4          3.6890   -2.1150    2.5580 ha        1 MOL      0.149300
     17 H5         -0.0790   -0.0350    2.4740 ha        1 MOL      0.149300
     18 H6         -0.0000    0.0000    0.0000 ha        1 MOL      0.136200
     19 H7          2.4100    0.5960    5.9990 h2        1 MOL      0.090800
@<TRIPOS>BOND
     1    1    6 ar  
     2    1    2 ar  
     3    2    3 ar  
     4    3    4 ar  
     5    4    5 ar  
     6    5    6 ar  
     7    4    7 1   
     8    7    8 1   
     9    8    9 1   
    10    8   10 1   
    11   10   11 1   
    12   10   12 1   
    13    8   13 1   
    14    1   14 1   
    15    2   15 1   
    16    3   16 1   
    17    5   17 1   
    18    6   18 1   
    19   10   19 1   
@<TRIPOS>SUBSTRUCTURE
     1 MOL         1 TEMP              0 ****  ****    0 ROOT
