@<TRIPOS>MOLECULE
propan-1-amine
   13    12     1     0     0
SMALL
No Charge or Current Charge


@<TRIPOS>ATOM
      1 C1          0.9920    0.0880   -0.4550 c3        1 MOL     -0.088100
      2 C2          1.2280    1.5170   -0.9220 c3        1 MOL     -0.122700
      3 C3          2.6190    1.7220   -1.5110 c3        1 MOL      0.152400
      4 N1          2.8340    3.0730   -1.9500 n3        1 MOL     -0.908400
      5 H1         -0.0140   -0.0270   -0.0380 hc        1 MOL      0.034500
      6 H2          1.0900   -0.6050   -1.2970 hc        1 MOL      0.034500
      7 H3          1.7180   -0.2070    0.3090 hc        1 MOL      0.034500
      8 H4          1.1030    2.1910   -0.0670 hc        1 MOL      0.035800
      9 H5          0.4640    1.7860   -1.6610 hc        1 MOL      0.035800
     10 H6          3.3810    1.5060   -0.7560 h1        1 MOL      0.051100
     11 H7          2.7900    1.0610   -2.3660 h1        1 MOL      0.051100
     12 H8          3.1170    3.7700   -1.2780 hn        1 MOL      0.344600
     13 H9          2.5080    3.3530   -2.8620 hn        1 MOL      0.344600
@<TRIPOS>BOND
     1    1    2 1   
     2    2    3 1   
     3    3    4 1   
     4    1    5 1   
     5    1    6 1   
     6    1    7 1   
     7    2    8 1   
     8    2    9 1   
     9    3   10 1   
    10    3   11 1   
    11    4   12 1   
    12    4   13 1   
@<TRIPOS>SUBSTRUCTURE
     1 MOL         1 TEMP              0 ****  ****    0 ROOT
