@<TRIPOS>MOLECULE
1,2,3,4,7-pentachlorodibenzo-p-dioxin
   22    24     1     0     0
SMALL
No Charge or Current Charge


@<TRIPOS>ATOM
      1 C1         -1.0040   -0.2570    0.3260 ca        1 MOL     -0.118600
      2 C2         -1.4370   -1.5820    0.2690 ca        1 MOL     -0.103200
      3 C3         -2.7270   -1.9050    0.6890 ca        1 MOL      0.058300
      4 C4         -3.5800   -0.9100    1.1630 ca        1 MOL      0.068800
      5 C5         -3.1490    0.4150    1.2200 ca        1 MOL     -0.107200
      6 C6         -1.8580    0.7400    0.8000 ca        1 MOL      0.020300
      7 Cl1        -1.3190    2.3730    0.8670 cl        1 MOL     -0.073700
      8 O1         -4.8560   -1.1830    1.5850 os        1 MOL     -0.202600
      9 C7         -5.2390   -2.4980    1.5120 ca        1 MOL      0.082100
     10 C8         -4.3860   -3.4940    1.0380 ca        1 MOL      0.084200
     11 C9         -4.8170   -4.8180    0.9820 ca        1 MOL      0.027300
     12 C10        -6.1070   -5.1430    1.4010 ca        1 MOL      0.021600
     13 C11        -6.9620   -4.1460    1.8750 ca        1 MOL      0.020700
     14 C12        -6.5290   -2.8210    1.9320 ca        1 MOL      0.028600
     15 Cl2        -7.5640   -1.5540    2.5180 cl        1 MOL     -0.020400
     16 Cl3        -8.5730   -4.5510    2.3990 cl        1 MOL     -0.030300
     17 Cl4        -6.6460   -6.7980    1.3300 cl        1 MOL     -0.029300
     18 Cl5        -3.7250   -6.0320    0.3850 cl        1 MOL     -0.021200
     19 O2         -3.1090   -3.2200    0.6160 os        1 MOL     -0.202000
     20 H1          0.0030   -0.0150   -0.0040 ha        1 MOL      0.158500
     21 H2         -0.7660   -2.3530   -0.1010 ha        1 MOL      0.164200
     22 H3         -3.8200    1.1860    1.5900 ha        1 MOL      0.173800
@<TRIPOS>BOND
     1    1    6 ar  
     2    1    2 ar  
     3    2    3 ar  
     4    3   19 1   
     5    3    4 ar  
     6    4    5 ar  
     7    5    6 ar  
     8    6    7 1   
     9    4    8 1   
    10    8    9 1   
    11    9   14 ar  
    12    9   10 ar  
    13   10   11 ar  
    14   11   12 ar  
    15   12   13 ar  
    16   13   14 ar  
    17   14   15 1   
    18   13   16 1   
    19   12   17 1   
    20   11   18 1   
    21   10   19 1   
    22    1   20 1   
    23    2   21 1   
    24    5   22 1   
@<TRIPOS>SUBSTRUCTURE
     1 MOL         1 TEMP              0 ****  ****    0 ROOT
