@<TRIPOS>MOLECULE
prop-2-en-1-ol
   10     9     1     0     0
SMALL
No Charge or Current Charge


@<TRIPOS>ATOM
      1 C1         -0.4680    0.6050    0.7690 c2        1 MOL     -0.206300
      2 C2         -1.5850    0.1860    1.3740 c2        1 MOL     -0.165400
      3 C3         -2.2690   -1.1040    1.0630 c3        1 MOL      0.159600
      4 O1         -2.3060   -1.8960    2.2410 oh        1 MOL     -0.595600
      5 H1         -0.0040    1.5510    1.0260 ha        1 MOL      0.113200
      6 H2          0.0000    0.0000    0.0000 ha        1 MOL      0.113200
      7 H3         -2.0350    0.8200    2.1340 ha        1 MOL      0.131900
      8 H4         -1.7510   -1.6670    0.2800 h1        1 MOL      0.025200
      9 H5         -3.2960   -0.9100    0.7390 h1        1 MOL      0.025200
     10 H6         -2.7550   -2.7250    2.0070 ho        1 MOL      0.398800
@<TRIPOS>BOND
     1    1    2 2   
     2    2    3 1   
     3    3    4 1   
     4    1    5 1   
     5    1    6 1   
     6    2    7 1   
     7    3    8 1   
     8    3    9 1   
     9    4   10 1   
@<TRIPOS>SUBSTRUCTURE
     1 MOL         1 TEMP              0 ****  ****    0 ROOT
