@<TRIPOS>MOLECULE
2,7-dichlorodibenzo-p-dioxin
   22    24     1     0     0
SMALL
No Charge or Current Charge


@<TRIPOS>ATOM
      1 C1         -1.0040   -0.2570    0.3260 ca        1 MOL     -0.120900
      2 C2         -1.4370   -1.5820    0.2690 ca        1 MOL     -0.108200
      3 C3         -2.7270   -1.9050    0.6890 ca        1 MOL      0.062400
      4 C4         -3.5800   -0.9100    1.1630 ca        1 MOL      0.071100
      5 C5         -3.1490    0.4150    1.2200 ca        1 MOL     -0.112600
      6 C6         -1.8580    0.7400    0.8000 ca        1 MOL      0.018800
      7 Cl1        -1.3190    2.3730    0.8660 cl        1 MOL     -0.079900
      8 O1         -4.8560   -1.1830    1.5850 os        1 MOL     -0.218000
      9 C7         -5.2390   -2.4980    1.5120 ca        1 MOL      0.062400
     10 C8         -6.5290   -2.8210    1.9320 ca        1 MOL     -0.108200
     11 C9         -6.9620   -4.1460    1.8750 ca        1 MOL     -0.120800
     12 C10        -6.1070   -5.1430    1.4010 ca        1 MOL      0.018800
     13 C11        -4.8170   -4.8180    0.9820 ca        1 MOL     -0.112600
     14 C12        -4.3860   -3.4940    1.0380 ca        1 MOL      0.071100
     15 O2         -3.1090   -3.2200    0.6160 os        1 MOL     -0.218000
     16 Cl2        -6.6470   -6.7760    1.3350 cl        1 MOL     -0.079900
     17 H1          0.0030   -0.0150   -0.0040 ha        1 MOL      0.156000
     18 H2         -0.7660   -2.3530   -0.1010 ha        1 MOL      0.161000
     19 H3         -3.8190    1.1870    1.5900 ha        1 MOL      0.170300
     20 H4         -7.1990   -2.0510    2.3020 ha        1 MOL      0.161000
     21 H5         -7.9690   -4.3890    2.2050 ha        1 MOL      0.156000
     22 H6         -4.1460   -5.5900    0.6110 ha        1 MOL      0.170300
@<TRIPOS>BOND
     1    1    6 ar  
     2    1    2 ar  
     3    2    3 ar  
     4    3   15 1   
     5    3    4 ar  
     6    4    5 ar  
     7    5    6 ar  
     8    6    7 1   
     9    4    8 1   
    10    8    9 1   
    11    9   14 ar  
    12    9   10 ar  
    13   10   11 ar  
    14   11   12 ar  
    15   12   13 ar  
    16   13   14 ar  
    17   14   15 1   
    18   12   16 1   
    19    1   17 1   
    20    2   18 1   
    21    5   19 1   
    22   10   20 1   
    23   11   21 1   
    24   13   22 1   
@<TRIPOS>SUBSTRUCTURE
     1 MOL         1 TEMP              0 ****  ****    0 ROOT
