@<TRIPOS>MOLECULE
5-(2,4-difluorophenyl)-2-hydroxy-benzoic
   26    27     1     0     0
SMALL
No Charge or Current Charge


@<TRIPOS>ATOM
      1 C1          1.8850   -1.0360   -0.1120 ca        1 MOL     -0.041700
      2 C2          2.9210   -1.6310    0.6080 ca        1 MOL     -0.234800
      3 C3          2.8780   -1.6520    2.0020 ca        1 MOL      0.189700
      4 C4          1.8000   -1.0790    2.6760 ca        1 MOL     -0.159400
      5 C5          0.7640   -0.4840    1.9550 ca        1 MOL     -0.019000
      6 C6          0.8070   -0.4630    0.5610 cp        1 MOL     -0.094100
      7 C7         -0.2680    0.1540   -0.1870 cp        1 MOL     -0.085000
      8 C8         -1.0060   -0.6070   -1.0930 ca        1 MOL     -0.072900
      9 C9         -2.0420   -0.0170   -1.8170 ca        1 MOL     -0.181500
     10 C10        -2.3390    1.3340   -1.6350 ca        1 MOL      0.156200
     11 C11        -1.6000    2.0950   -0.7290 ca        1 MOL     -0.208200
     12 C12        -0.5640    1.5040   -0.0050 ca        1 MOL      0.164800
     13 F1          0.1380    2.2490    0.8610 f         1 MOL     -0.127300
     14 F2         -3.3330    1.9010   -2.3320 f         1 MOL     -0.132200
     15 C13         1.7370   -1.0890    4.1310 c         1 MOL      0.661000
     16 O1          2.2260   -1.9560    4.8600 o         1 MOL     -0.528300
     17 O2          1.0660   -0.0150    4.6280 oh        1 MOL     -0.612600
     18 O3          3.9010   -2.2360    2.6880 oh        1 MOL     -0.466400
     19 H1          1.9330   -1.0280   -1.1990 ha        1 MOL      0.145200
     20 H2          3.7590   -2.0750    0.0780 ha        1 MOL      0.141100
     21 H3         -0.0760   -0.0360    2.4830 ha        1 MOL      0.163500
     22 H4         -0.7870   -1.6610   -1.2460 ha        1 MOL      0.147400
     23 H5         -2.6190   -0.6080   -2.5220 ha        1 MOL      0.155600
     24 H6         -1.8310    3.1460   -0.5880 ha        1 MOL      0.167700
     25 H7          1.0190   -0.0130    5.6080 ho        1 MOL      0.444600
     26 H8          4.5640   -2.5810    2.0700 ho        1 MOL      0.426400
@<TRIPOS>BOND
     1    1    6 ar  
     2    1    2 ar  
     3    2    3 ar  
     4    3    4 ar  
     5    4    5 ar  
     6    5    6 ar  
     7    6    7 1   
     8    7   12 ar  
     9    7    8 ar  
    10    8    9 ar  
    11    9   10 ar  
    12   10   11 ar  
    13   11   12 ar  
    14   12   13 1   
    15   10   14 1   
    16    4   15 1   
    17   15   16 2   
    18   15   17 1   
    19    3   18 1   
    20    1   19 1   
    21    2   20 1   
    22    5   21 1   
    23    8   22 1   
    24    9   23 1   
    25   11   24 1   
    26   17   25 1   
    27   18   26 1   
@<TRIPOS>SUBSTRUCTURE
     1 MOL         1 TEMP              0 ****  ****    0 ROOT
