@<TRIPOS>MOLECULE
1-cyclopropylethanone
   14    14     1     0     0
SMALL
No Charge or Current Charge


@<TRIPOS>ATOM
      1 C1          0.1360   -2.6140    1.3930 c3        1 MOL     -0.198600
      2 C2         -0.8200   -1.5950    0.8340 c         1 MOL      0.591600
      3 O1         -2.0310   -1.8020    0.7900 o         1 MOL     -0.527500
      4 C3         -0.2350   -0.3430    0.3420 cx        1 MOL     -0.237100
      5 C4          0.9240   -0.3970   -0.6170 cx        1 MOL     -0.115400
      6 C5         -0.4240    0.0430   -1.1010 cx        1 MOL     -0.115400
      7 H1          0.4730   -3.2770    0.5930 hc        1 MOL      0.064000
      8 H2          0.9900   -2.1050    1.8470 hc        1 MOL      0.064000
      9 H3         -0.3680   -3.2110    2.1580 hc        1 MOL      0.064000
     10 H4         -0.2290    0.4670    1.0640 hc        1 MOL      0.105300
     11 H5          1.7000    0.3540   -0.5360 hc        1 MOL      0.076300
     12 H6          1.2770   -1.3740   -0.9260 hc        1 MOL      0.076300
     13 H7         -0.5540    1.0910   -1.3450 hc        1 MOL      0.076300
     14 H8         -0.9800   -0.6360   -1.7360 hc        1 MOL      0.076300
@<TRIPOS>BOND
     1    1    2 1   
     2    2    3 2   
     3    2    4 1   
     4    4    6 1   
     5    4    5 1   
     6    5    6 1   
     7    1    7 1   
     8    1    8 1   
     9    1    9 1   
    10    4   10 1   
    11    5   11 1   
    12    5   12 1   
    13    6   13 1   
    14    6   14 1   
@<TRIPOS>SUBSTRUCTURE
     1 MOL         1 TEMP              0 ****  ****    0 ROOT
