@<TRIPOS>MOLECULE
1-cyclohexylethanone
   23    23     1     0     0
SMALL
No Charge or Current Charge


@<TRIPOS>ATOM
      1 C1          0.0510    0.6950   -1.3300 c3        1 MOL     -0.201800
      2 C2          0.7300   -0.4750   -0.6710 c         1 MOL      0.566900
      3 O1          1.4870   -0.3260    0.2870 o         1 MOL     -0.535500
      4 C3          0.4390   -1.8330   -1.2410 c3        1 MOL     -0.158400
      5 C4          1.0890   -2.9170   -0.3780 c3        1 MOL     -0.064400
      6 C5          2.5980   -3.0260   -0.5900 c3        1 MOL     -0.079000
      7 C6          2.9490   -3.1870   -2.0640 c3        1 MOL     -0.075900
      8 C7          2.3700   -2.0530   -2.9020 c3        1 MOL     -0.079000
      9 C8          0.8600   -1.9150   -2.7090 c3        1 MOL     -0.064400
     10 H1          0.6830    1.0780   -2.1360 hc        1 MOL      0.062600
     11 H2         -0.9170    0.3810   -1.7270 hc        1 MOL      0.062600
     12 H3         -0.1080    1.4900   -0.5970 hc        1 MOL      0.062600
     13 H4         -0.6500   -1.9510   -1.1800 hc        1 MOL      0.062800
     14 H5          0.8870   -2.7310    0.6840 hc        1 MOL      0.044300
     15 H6          0.6300   -3.8840   -0.6230 hc        1 MOL      0.044300
     16 H7          3.0980   -2.1370   -0.1880 hc        1 MOL      0.046500
     17 H8          2.9830   -3.8840   -0.0270 hc        1 MOL      0.046500
     18 H9          4.0380   -3.2150   -2.1830 hc        1 MOL      0.038900
     19 H10         2.5630   -4.1460   -2.4310 hc        1 MOL      0.038900
     20 H11         2.8630   -1.1110   -2.6300 hc        1 MOL      0.046500
     21 H12         2.5900   -2.2280   -3.9620 hc        1 MOL      0.046500
     22 H13         0.5070   -1.0340   -3.2590 hc        1 MOL      0.044300
     23 H14         0.3720   -2.7860   -3.1650 hc        1 MOL      0.044300
@<TRIPOS>BOND
     1    1    2 1   
     2    2    3 2   
     3    2    4 1   
     4    4    9 1   
     5    4    5 1   
     6    5    6 1   
     7    6    7 1   
     8    7    8 1   
     9    8    9 1   
    10    1   10 1   
    11    1   11 1   
    12    1   12 1   
    13    4   13 1   
    14    5   14 1   
    15    5   15 1   
    16    6   16 1   
    17    6   17 1   
    18    7   18 1   
    19    7   19 1   
    20    8   20 1   
    21    8   21 1   
    22    9   22 1   
    23    9   23 1   
@<TRIPOS>SUBSTRUCTURE
     1 MOL         1 TEMP              0 ****  ****    0 ROOT
