@<TRIPOS>MOLECULE
butylbenzene
   24    24     1     0     0
SMALL
No Charge or Current Charge


@<TRIPOS>ATOM
      1 C1         -0.0240    1.0480    0.3160 c3        1 MOL     -0.092000
      2 C2         -0.5550    1.9380   -0.7960 c3        1 MOL     -0.080800
      3 C3          0.3240    1.8600   -2.0440 c3        1 MOL     -0.076900
      4 C4         -0.2150    2.7590   -3.1610 c3        1 MOL     -0.036300
      5 C5          0.6480    2.6860   -4.3950 ca        1 MOL     -0.076500
      6 C6          1.7160    3.5700   -4.5510 ca        1 MOL     -0.127800
      7 C7          2.5150    3.5030   -5.6930 ca        1 MOL     -0.128600
      8 C8          2.2450    2.5530   -6.6780 ca        1 MOL     -0.132500
      9 C9          1.1770    1.6690   -6.5220 ca        1 MOL     -0.128600
     10 C10         0.3790    1.7360   -5.3800 ca        1 MOL     -0.127800
     11 H1         -0.6590    1.1100    1.2050 hc        1 MOL      0.033600
     12 H2          0.9930    1.3380    0.5990 hc        1 MOL      0.033600
     13 H3         -0.0000    0.0040   -0.0120 hc        1 MOL      0.033600
     14 H4         -0.6010    2.9730   -0.4370 hc        1 MOL      0.037800
     15 H5         -1.5790    1.6330   -1.0420 hc        1 MOL      0.037800
     16 H6          1.3490    2.1580   -1.7890 hc        1 MOL      0.043800
     17 H7          0.3750    0.8210   -2.3930 hc        1 MOL      0.043800
     18 H8         -0.2720    3.7970   -2.8080 hc        1 MOL      0.046900
     19 H9         -1.2440    2.4650   -3.4100 hc        1 MOL      0.046900
     20 H10         1.9330    4.3130   -3.7890 ha        1 MOL      0.130100
     21 H11         3.3460    4.1910   -5.8150 ha        1 MOL      0.129600
     22 H12         2.8670    2.5010   -7.5670 ha        1 MOL      0.130500
     23 H13         0.9670    0.9300   -7.2890 ha        1 MOL      0.129600
     24 H14        -0.4510    1.0430   -5.2670 ha        1 MOL      0.130100
@<TRIPOS>BOND
     1    1    2 1   
     2    2    3 1   
     3    3    4 1   
     4    4    5 1   
     5    5   10 ar  
     6    5    6 ar  
     7    6    7 ar  
     8    7    8 ar  
     9    8    9 ar  
    10    9   10 ar  
    11    1   11 1   
    12    1   12 1   
    13    1   13 1   
    14    2   14 1   
    15    2   15 1   
    16    3   16 1   
    17    3   17 1   
    18    4   18 1   
    19    4   19 1   
    20    6   20 1   
    21    7   21 1   
    22    8   22 1   
    23    9   23 1   
    24   10   24 1   
@<TRIPOS>SUBSTRUCTURE
     1 MOL         1 TEMP              0 ****  ****    0 ROOT
