@<TRIPOS>MOLECULE
hex-1-yne
   16    15     1     0     0
SMALL
No Charge or Current Charge


@<TRIPOS>ATOM
      1 C1         -1.8670   -1.1610    1.1540 c3        1 MOL     -0.093200
      2 C2         -0.3930   -0.8180    1.0130 c3        1 MOL     -0.081400
      3 C3         -0.1450    0.1090   -0.1770 c3        1 MOL     -0.076700
      4 C4          1.3380    0.4520   -0.3160 c3        1 MOL     -0.002700
      5 C5          1.5710    1.3430   -1.4610 c1        1 MOL     -0.137800
      6 C6          1.7640    2.0710   -2.3960 c1        1 MOL     -0.162900
      7 H1         -2.0220   -1.8250    2.0100 hc        1 MOL      0.034000
      8 H2         -2.2390   -1.6700    0.2590 hc        1 MOL      0.034000
      9 H3         -2.4670   -0.2590    1.3110 hc        1 MOL      0.034000
     10 H4         -0.0450   -0.3400    1.9360 hc        1 MOL      0.039100
     11 H5          0.1810   -1.7440    0.8890 hc        1 MOL      0.039100
     12 H6         -0.5030   -0.3700   -1.0980 hc        1 MOL      0.047500
     13 H7         -0.7290    1.0300   -0.0540 hc        1 MOL      0.047500
     14 H8          1.9220   -0.4670   -0.4440 hc        1 MOL      0.058200
     15 H9          1.6960    0.9350    0.6010 hc        1 MOL      0.058200
     16 H10         1.9360    2.7180   -3.2250 ha        1 MOL      0.163300
@<TRIPOS>BOND
     1    1    2 1   
     2    2    3 1   
     3    3    4 1   
     4    4    5 1   
     5    5    6 3   
     6    1    7 1   
     7    1    8 1   
     8    1    9 1   
     9    2   10 1   
    10    2   11 1   
    11    3   12 1   
    12    3   13 1   
    13    4   14 1   
    14    4   15 1   
    15    6   16 1   
@<TRIPOS>SUBSTRUCTURE
     1 MOL         1 TEMP              0 ****  ****    0 ROOT
