@<TRIPOS>MOLECULE
morpholine
   15    15     1     0     0
SMALL
No Charge or Current Charge


@<TRIPOS>ATOM
      1 C1          0.2630   -1.3890   -0.0630 c3        1 MOL      0.124000
      2 C2          1.2060   -0.3400   -0.6420 c3        1 MOL      0.125800
      3 O1          1.0980    0.8810    0.0920 os        1 MOL     -0.417100
      4 C3         -0.2370    1.3860    0.0490 c3        1 MOL      0.125800
      5 C4         -1.2070    0.3700    0.6400 c3        1 MOL      0.124000
      6 N1         -1.1220   -0.9070   -0.0760 n3        1 MOL     -0.813700
      7 H1          0.5530   -1.6270    0.9670 h1        1 MOL      0.038000
      8 H2          0.3310   -2.3120   -0.6490 h1        1 MOL      0.038000
      9 H3          2.2410   -0.6850   -0.5650 h1        1 MOL      0.053900
     10 H4          0.9960   -0.1490   -1.7010 h1        1 MOL      0.053900
     11 H5         -0.2630    2.3110    0.6330 h1        1 MOL      0.053900
     12 H6         -0.4980    1.6390   -0.9860 h1        1 MOL      0.053900
     13 H7         -0.9780    0.2060    1.7000 h1        1 MOL      0.038000
     14 H8         -2.2300    0.7530    0.5770 h1        1 MOL      0.038000
     15 H9         -1.7250   -1.5930    0.3770 hn        1 MOL      0.363400
@<TRIPOS>BOND
     1    1    6 1   
     2    1    2 1   
     3    2    3 1   
     4    3    4 1   
     5    4    5 1   
     6    5    6 1   
     7    1    7 1   
     8    1    8 1   
     9    2    9 1   
    10    2   10 1   
    11    4   11 1   
    12    4   12 1   
    13    5   13 1   
    14    5   14 1   
    15    6   15 1   
@<TRIPOS>SUBSTRUCTURE
     1 MOL         1 TEMP              0 ****  ****    0 ROOT
