@<TRIPOS>MOLECULE
1,1-dioxido-2,3,4,5-tetrahydrothiophene
   15    15     1     0     0
SMALL
No Charge or Current Charge


@<TRIPOS>ATOM
      1 C1         -1.1170    1.4380   -0.1710 c3        1 MOL     -0.059900
      2 C2          0.0310    1.3980   -1.1790 c3        1 MOL     -0.059900
      3 C3          1.1320    0.5660   -0.5320 c3        1 MOL     -0.308300
      4 S1          0.2810   -0.7350    0.3500 s6        1 MOL      1.209700
      5 C4         -1.3470   -0.0050    0.2650 c3        1 MOL     -0.308300
      6 O1          0.7260   -0.7270    1.7280 o         1 MOL     -0.605600
      7 O2          0.2940   -1.9350   -0.4610 o         1 MOL     -0.605600
      8 H1         -2.0230    1.8750   -0.6010 hc        1 MOL      0.062400
      9 H2         -0.8250    2.0470    0.6930 hc        1 MOL      0.062400
     10 H3         -0.3070    0.9160   -2.1040 hc        1 MOL      0.062400
     11 H4          0.3850    2.4010   -1.4330 hc        1 MOL      0.062400
     12 H5          1.8150    0.1310   -1.2650 h1        1 MOL      0.122100
     13 H6          1.6920    1.1560    0.2000 h1        1 MOL      0.122100
     14 H7         -1.9210   -0.5540   -0.4880 h1        1 MOL      0.122100
     15 H8         -1.8380   -0.0760    1.2370 h1        1 MOL      0.122100
@<TRIPOS>BOND
     1    1    5 1   
     2    1    2 1   
     3    2    3 1   
     4    3    4 1   
     5    4    5 1   
     6    4    6 2   
     7    4    7 2   
     8    1    8 1   
     9    1    9 1   
    10    2   10 1   
    11    2   11 1   
    12    3   12 1   
    13    3   13 1   
    14    5   14 1   
    15    5   15 1   
@<TRIPOS>SUBSTRUCTURE
     1 MOL         1 TEMP              0 ****  ****    0 ROOT
