@<TRIPOS>MOLECULE
[(1S)-1-methylpropyl]
   17    16     1     0     0
SMALL
No Charge or Current Charge


@<TRIPOS>ATOM
      1 C1          0.9780   -0.0330   -0.2360 c3        1 MOL     -0.090000
      2 C2          1.4100    0.6790   -1.5110 c3        1 MOL     -0.122600
      3 C3          0.6390    0.1880   -2.7390 c3        1 MOL      0.161200
      4 H1          0.8080   -0.8860   -2.8800 h1        1 MOL      0.097200
      5 C4          1.0610    0.9420   -3.9930 c3        1 MOL     -0.128500
      6 O1         -0.7550    0.3900   -2.5270 os        1 MOL     -0.365700
      7 N1         -1.5760   -0.4130   -3.3640 no        1 MOL      0.372200
      8 O2         -1.0160   -1.1730   -4.1580 o         1 MOL     -0.177900
      9 O3         -2.7780   -0.2290   -3.1710 o         1 MOL     -0.177900
     10 H2          1.5420    0.3350    0.6270 hc        1 MOL      0.042300
     11 H3          1.1300   -1.1140   -0.3110 hc        1 MOL      0.042300
     12 H4         -0.0850    0.1450   -0.0460 hc        1 MOL      0.042300
     13 H5          2.4850    0.5240   -1.6590 hc        1 MOL      0.061200
     14 H6          1.2460    1.7550   -1.3740 hc        1 MOL      0.061200
     15 H7          0.5070    0.5870   -4.8690 hc        1 MOL      0.060900
     16 H8          0.8950    2.0180   -3.8840 hc        1 MOL      0.060900
     17 H9          2.1230    0.7730   -4.2030 hc        1 MOL      0.060900
@<TRIPOS>BOND
     1    1    2 1   
     2    2    3 1   
     3    3    4 1   
     4    3    5 1   
     5    3    6 1   
     6    6    7 1   
     7    7    8 1   
     8    7    9 1   
     9    1   10 1   
    10    1   11 1   
    11    1   12 1   
    12    2   13 1   
    13    2   14 1   
    14    5   15 1   
    15    5   16 1   
    16    5   17 1   
@<TRIPOS>SUBSTRUCTURE
     1 MOL         1 TEMP              0 ****  ****    0 ROOT
