@<TRIPOS>MOLECULE
9H-fluorene
   23    25     1     0     0
SMALL
No Charge or Current Charge


@<TRIPOS>ATOM
      1 C1         -4.9620   -4.0690    3.8310 ca        1 MOL     -0.126300
      2 C2         -4.9950   -2.6690    3.7010 ca        1 MOL     -0.133100
      3 C3         -4.0210   -1.9920    2.9620 ca        1 MOL     -0.103300
      4 C4         -3.0200   -2.7370    2.3590 cp        1 MOL     -0.041100
      5 C5         -2.9930   -4.1430    2.4930 ca        1 MOL     -0.084300
      6 C6         -3.9540   -4.8190    3.2230 ca        1 MOL     -0.118000
      7 C7         -1.8090   -4.7230    1.7470 c3        1 MOL      0.004300
      8 C8         -1.1660   -3.4780    1.1730 ca        1 MOL     -0.084300
      9 C9         -1.8950   -2.3270    1.5460 cp        1 MOL     -0.041100
     10 C10        -1.4870   -1.0710    1.1310 ca        1 MOL     -0.103300
     11 C11        -0.3400   -0.9760    0.3380 ca        1 MOL     -0.133100
     12 C12         0.3810   -2.1240   -0.0300 ca        1 MOL     -0.126300
     13 C13        -0.0300   -3.3910    0.3870 ca        1 MOL     -0.118000
     14 H1         -5.7320   -4.5710    4.4110 ha        1 MOL      0.130800
     15 H2         -5.7900   -2.1070    4.1840 ha        1 MOL      0.130300
     16 H3         -4.0590   -0.9120    2.8720 ha        1 MOL      0.135900
     17 H4         -3.9290   -5.8990    3.3240 ha        1 MOL      0.134100
     18 H5         -1.1270   -5.2290    2.4370 hc        1 MOL      0.072900
     19 H6         -2.1440   -5.3910    0.9480 hc        1 MOL      0.072900
     20 H7         -2.0330   -0.1750    1.4080 ha        1 MOL      0.135900
     21 H8         -0.0000   -0.0000   -0.0000 ha        1 MOL      0.130300
     22 H9          1.2700   -2.0230   -0.6480 ha        1 MOL      0.130800
     23 H10         0.5280   -4.2770    0.1030 ha        1 MOL      0.134100
@<TRIPOS>BOND
     1    1    6 ar  
     2    1    2 ar  
     3    2    3 ar  
     4    3    4 ar  
     5    4    9 1   
     6    4    5 ar  
     7    5    6 ar  
     8    5    7 1   
     9    7    8 1   
    10    8   13 ar  
    11    8    9 ar  
    12    9   10 ar  
    13   10   11 ar  
    14   11   12 ar  
    15   12   13 ar  
    16    1   14 1   
    17    2   15 1   
    18    3   16 1   
    19    6   17 1   
    20    7   18 1   
    21    7   19 1   
    22   10   20 1   
    23   11   21 1   
    24   12   22 1   
    25   13   23 1   
@<TRIPOS>SUBSTRUCTURE
     1 MOL         1 TEMP              0 ****  ****    0 ROOT
