@<TRIPOS>MOLECULE
3-methylbut-1-ene
   15    14     1     0     0
SMALL
No Charge or Current Charge


@<TRIPOS>ATOM
      1 C1          2.1510   -3.7350    0.9780 c3        1 MOL     -0.086400
      2 C2          2.3690   -2.2470    1.2480 c3        1 MOL     -0.041700
      3 C3          2.8720   -2.0290    2.6750 c3        1 MOL     -0.086400
      4 C4          1.0890   -1.4840    1.0240 c2        1 MOL     -0.158200
      5 C5          0.9540   -0.5000    0.1260 c2        1 MOL     -0.224400
      6 H1          1.7900   -3.8940   -0.0440 hc        1 MOL      0.035000
      7 H2          1.4040   -4.1540    1.6630 hc        1 MOL      0.035000
      8 H3          3.0780   -4.3080    1.1000 hc        1 MOL      0.035000
      9 H4          3.1430   -1.8880    0.5580 hc        1 MOL      0.048500
     10 H5          3.0340   -0.9660    2.8880 hc        1 MOL      0.035000
     11 H6          2.1470   -2.4090    3.4030 hc        1 MOL      0.035000
     12 H7          3.8190   -2.5540    2.8420 hc        1 MOL      0.035000
     13 H8          0.2280   -1.7530    1.6310 ha        1 MOL      0.118200
     14 H9          0.0140    0.0240   -0.0040 ha        1 MOL      0.110300
     15 H10         1.7920   -0.2060   -0.4960 ha        1 MOL      0.110300
@<TRIPOS>BOND
     1    1    2 1   
     2    2    3 1   
     3    2    4 1   
     4    4    5 2   
     5    1    6 1   
     6    1    7 1   
     7    1    8 1   
     8    2    9 1   
     9    3   10 1   
    10    3   11 1   
    11    3   12 1   
    12    4   13 1   
    13    5   14 1   
    14    5   15 1   
@<TRIPOS>SUBSTRUCTURE
     1 MOL         1 TEMP              0 ****  ****    0 ROOT
