@<TRIPOS>MOLECULE
methanethiol
    6     5     1     0     0
SMALL
No Charge or Current Charge


@<TRIPOS>ATOM
      1 C1          0.2790    0.8230    0.6630 c3        1 MOL     -0.024000
      2 S1         -0.4280    2.3670    0.0540 sh        1 MOL     -0.362700
      3 H1         -0.0940    0.6140    1.6690 h1        1 MOL      0.063500
      4 H2          1.3680    0.9010    0.6960 h1        1 MOL      0.063500
      5 H3         -0.0010   -0.0000    0.0010 h1        1 MOL      0.063500
      6 H4          0.1840    2.3560   -1.1390 hs        1 MOL      0.196200
@<TRIPOS>BOND
     1    1    2 1   
     2    1    3 1   
     3    1    4 1   
     4    1    5 1   
     5    2    6 1   
@<TRIPOS>SUBSTRUCTURE
     1 MOL         1 TEMP              0 ****  ****    0 ROOT
