@<TRIPOS>MOLECULE
methyl
   11    10     1     0     0
SMALL
No Charge or Current Charge


@<TRIPOS>ATOM
      1 C1         -0.9370   -0.5550    0.0880 c3        1 MOL     -0.150200
      2 C2         -1.6380   -0.5840   -1.2370 c         1 MOL      0.630800
      3 O1         -1.9040   -1.6090   -1.8490 o         1 MOL     -0.538000
      4 O2         -1.9190    0.6900   -1.6320 os        1 MOL     -0.446000
      5 C3         -2.5910    0.8100   -2.8890 c3        1 MOL      0.125600
      6 H1          0.1430   -0.4960   -0.0650 hc        1 MOL      0.076100
      7 H2         -1.1970   -1.4470    0.6640 hc        1 MOL      0.076100
      8 H3         -1.2580    0.3270    0.6490 hc        1 MOL      0.076100
      9 H4         -2.7600    1.8650   -3.0960 h1        1 MOL      0.049900
     10 H5         -3.5340    0.2710   -2.8340 h1        1 MOL      0.049900
     11 H6         -1.9560    0.3760   -3.6580 h1        1 MOL      0.049900
@<TRIPOS>BOND
     1    1    2 1   
     2    2    3 2   
     3    2    4 1   
     4    4    5 1   
     5    1    6 1   
     6    1    7 1   
     7    1    8 1   
     8    5    9 1   
     9    5   10 1   
    10    5   11 1   
@<TRIPOS>SUBSTRUCTURE
     1 MOL         1 TEMP              0 ****  ****    0 ROOT
