@<TRIPOS>MOLECULE
(3R)-2-methylpentan-3-ol
   21    20     1     0     0
SMALL
No Charge or Current Charge


@<TRIPOS>ATOM
      1 C1          3.2780    0.1290   -0.4290 c3        1 MOL     -0.091000
      2 C2          1.9820    0.8860   -0.1670 c3        1 MOL     -0.112400
      3 C3          2.0050    1.6540    1.1620 c3        1 MOL      0.139700
      4 H1          2.1570    0.9450    1.9850 h1        1 MOL      0.076800
      5 C4          0.6960    2.4340    1.4240 c3        1 MOL     -0.098000
      6 C5         -0.5410    1.5330    1.4850 c3        1 MOL     -0.089000
      7 C6          0.7990    3.2370    2.7260 c3        1 MOL     -0.089000
      8 O1          3.1030    2.5660    1.1730 oh        1 MOL     -0.595800
      9 H2          3.2160   -0.4020   -1.3850 hc        1 MOL      0.037500
     10 H3          3.4740   -0.6120    0.3510 hc        1 MOL      0.037500
     11 H4          4.1300    0.8140   -0.4770 hc        1 MOL      0.037500
     12 H5          1.8140    1.5850   -0.9950 hc        1 MOL      0.043300
     13 H6          1.1650    0.1560   -0.1710 hc        1 MOL      0.043300
     14 H7          0.5530    3.1500    0.6040 hc        1 MOL      0.043500
     15 H8         -1.4490    2.1150    1.6710 hc        1 MOL      0.036900
     16 H9         -0.6800    0.9720    0.5550 hc        1 MOL      0.036900
     17 H10        -0.4500    0.8080    2.3010 hc        1 MOL      0.036900
     18 H11        -0.1280    3.7900    2.9130 hc        1 MOL      0.036900
     19 H12         1.6140    3.9660    2.6690 hc        1 MOL      0.036900
     20 H13         0.9820    2.5870    3.5880 hc        1 MOL      0.036900
     21 H14         2.9650    3.1710    0.4280 ho        1 MOL      0.394300
@<TRIPOS>BOND
     1    1    2 1   
     2    2    3 1   
     3    3    4 1   
     4    3    5 1   
     5    5    6 1   
     6    5    7 1   
     7    3    8 1   
     8    1    9 1   
     9    1   10 1   
    10    1   11 1   
    11    2   12 1   
    12    2   13 1   
    13    5   14 1   
    14    6   15 1   
    15    6   16 1   
    16    6   17 1   
    17    7   18 1   
    18    7   19 1   
    19    7   20 1   
    20    8   21 1   
@<TRIPOS>SUBSTRUCTURE
     1 MOL         1 TEMP              0 ****  ****    0 ROOT
