@<TRIPOS>MOLECULE
1-phenylethanone
   17    17     1     0     0
SMALL
No Charge or Current Charge


@<TRIPOS>ATOM
      1 C1          1.2620    0.1340   -2.2530 c3        1 MOL     -0.198200
      2 C2          1.9290   -1.0160   -1.5660 c         1 MOL      0.575900
      3 O1          2.4680   -1.8730   -2.2580 o         1 MOL     -0.532600
      4 C3          1.8850   -1.0360   -0.1120 ca        1 MOL     -0.173800
      5 C4          2.9210   -1.6310    0.6080 ca        1 MOL     -0.086200
      6 C5          2.8780   -1.6520    2.0020 ca        1 MOL     -0.141000
      7 C6          1.8000   -1.0790    2.6760 ca        1 MOL     -0.105200
      8 C7          0.7640   -0.4840    1.9550 ca        1 MOL     -0.141000
      9 C8          0.8070   -0.4630    0.5610 ca        1 MOL     -0.086200
     10 H1          0.1990   -0.0370   -2.4890 hc        1 MOL      0.064900
     11 H2          1.7630    0.4340   -3.1860 hc        1 MOL      0.064900
     12 H3          1.2490    1.0520   -1.6390 hc        1 MOL      0.064900
     13 H4          3.7660   -2.0810    0.0930 ha        1 MOL      0.143300
     14 H5          3.6850   -2.1150    2.5630 ha        1 MOL      0.136600
     15 H6          1.7660   -1.0950    3.7610 ha        1 MOL      0.133900
     16 H7         -0.0760   -0.0380    2.4800 ha        1 MOL      0.136600
     17 H8         -0.0060    0.0040    0.0100 ha        1 MOL      0.143300
@<TRIPOS>BOND
     1    1    2 1   
     2    2    3 2   
     3    2    4 1   
     4    4    9 ar  
     5    4    5 ar  
     6    5    6 ar  
     7    6    7 ar  
     8    7    8 ar  
     9    8    9 ar  
    10    1   10 1   
    11    1   11 1   
    12    1   12 1   
    13    5   13 1   
    14    6   14 1   
    15    7   15 1   
    16    8   16 1   
    17    9   17 1   
@<TRIPOS>SUBSTRUCTURE
     1 MOL         1 TEMP              0 ****  ****    0 ROOT
