@<TRIPOS>MOLECULE
(1R)-2,2,2-trichloro-1-dimethoxyphosphoryl-ethanol
   20    19     1     0     0
SMALL
No Charge or Current Charge


@<TRIPOS>ATOM
      1 C1          1.1650   -0.4850    1.9520 c3        1 MOL      0.156600
      2 O1          1.3840   -0.5000    0.5520 os        1 MOL     -0.582800
      3 P1          0.4020    0.2900   -0.4640 p5        1 MOL      1.517100
      4 O2          1.0180    0.5670   -1.8050 o         1 MOL     -0.792600
      5 C2         -1.1260   -0.6530   -0.5270 c3        1 MOL     -0.133400
      6 H1         -1.5420   -0.6950    0.4850 h1        1 MOL      0.139700
      7 C3         -1.0950   -2.0610   -1.1400 c3        1 MOL      0.250800
      8 Cl1         0.0250   -3.1290   -0.2450 cl        1 MOL     -0.096200
      9 Cl2        -2.7360   -2.7910   -1.0530 cl        1 MOL     -0.096200
     10 Cl3        -0.5970   -2.0290   -2.8600 cl        1 MOL     -0.096200
     11 O3         -2.0060    0.1840   -1.2820 oh        1 MOL     -0.561300
     12 O4         -0.0110    1.6280    0.3540 os        1 MOL     -0.582800
     13 C4          0.9040    2.7110    0.3870 c3        1 MOL      0.156600
     14 H2          1.9380   -1.0770    2.4490 h1        1 MOL      0.048200
     15 H3          0.1770   -0.8980    2.1710 h1        1 MOL      0.048200
     16 H4          1.2130    0.5470    2.3080 h1        1 MOL      0.048200
     17 H5         -1.6020    0.3170   -2.1560 ho        1 MOL      0.431400
     18 H6          0.4790    3.5280    0.9740 h1        1 MOL      0.048200
     19 H7          1.1070    3.0460   -0.6330 h1        1 MOL      0.048200
     20 H8          1.8330    2.3750    0.8510 h1        1 MOL      0.048200
@<TRIPOS>BOND
     1    1    2 1   
     2    2    3 1   
     3    3    4 2   
     4    3    5 1   
     5    5    6 1   
     6    5    7 1   
     7    7    8 1   
     8    7    9 1   
     9    7   10 1   
    10    5   11 1   
    11    3   12 1   
    12   12   13 1   
    13    1   14 1   
    14    1   15 1   
    15    1   16 1   
    16   11   17 1   
    17   13   18 1   
    18   13   19 1   
    19   13   20 1   
@<TRIPOS>SUBSTRUCTURE
     1 MOL         1 TEMP              0 ****  ****    0 ROOT
