@<TRIPOS>MOLECULE
4-hydroxybenzaldehyde
   15    15     1     0     0
SMALL
No Charge or Current Charge


@<TRIPOS>ATOM
      1 C1          1.8850   -1.0360   -0.1120 ca        1 MOL     -0.040800
      2 C2          2.9210   -1.6310    0.6080 ca        1 MOL     -0.202800
      3 C3          2.8780   -1.6520    2.0020 ca        1 MOL      0.156800
      4 C4          1.8000   -1.0790    2.6760 ca        1 MOL     -0.202800
      5 C5          0.7640   -0.4840    1.9550 ca        1 MOL     -0.040800
      6 C6          0.8070   -0.4630    0.5610 ca        1 MOL     -0.234800
      7 C7         -0.2730    0.1570   -0.1900 c         1 MOL      0.579900
      8 O1         -1.2540    0.6800    0.3460 o         1 MOL     -0.532600
      9 O2          3.8890   -2.2320    2.7060 oh        1 MOL     -0.490300
     10 H1          1.9280   -1.0250   -1.1980 ha        1 MOL      0.147700
     11 H2          3.7590   -2.0760    0.0780 ha        1 MOL      0.147100
     12 H3          1.7610   -1.0920    3.7610 ha        1 MOL      0.147100
     13 H4         -0.0720   -0.0400    2.4900 ha        1 MOL      0.147700
     14 H5         -0.1950    0.1490   -1.2990 h4        1 MOL     -0.005300
     15 H6          4.5610   -2.5840    2.1010 ho        1 MOL      0.423900
@<TRIPOS>BOND
     1    1    6 ar  
     2    1    2 ar  
     3    2    3 ar  
     4    3    4 ar  
     5    4    5 ar  
     6    5    6 ar  
     7    6    7 1   
     8    7    8 2   
     9    3    9 1   
    10    1   10 1   
    11    2   11 1   
    12    4   12 1   
    13    5   13 1   
    14    7   14 1   
    15    9   15 1   
@<TRIPOS>SUBSTRUCTURE
     1 MOL         1 TEMP              0 ****  ****    0 ROOT
