@<TRIPOS>MOLECULE
1,2,3,4,5-pentachloro-6-(2,3,4,5,6-pentachlorophenyl)benzene
   22    23     1     0     0
SMALL
No Charge or Current Charge


@<TRIPOS>ATOM
      1 C1          1.8850   -1.0360   -0.1120 cp        1 MOL     -0.029200
      2 C2          2.9210   -1.6310    0.6080 ca        1 MOL      0.053000
      3 C3          2.8780   -1.6520    2.0020 ca        1 MOL      0.016000
      4 C4          1.8000   -1.0790    2.6760 ca        1 MOL      0.037500
      5 C5          0.7640   -0.4840    1.9550 ca        1 MOL      0.016000
      6 C6          0.8070   -0.4630    0.5610 ca        1 MOL      0.053000
      7 Cl1        -0.4830    0.2770   -0.3510 cl        1 MOL     -0.032300
      8 Cl2        -0.5850    0.2340    2.7950 cl        1 MOL     -0.027400
      9 Cl3         1.7480   -1.1030    4.4180 cl        1 MOL     -0.026900
     10 Cl4         4.1750   -2.3940    2.9000 cl        1 MOL     -0.027400
     11 Cl5         4.2640   -2.3450   -0.2450 cl        1 MOL     -0.032300
     12 C7          1.9290   -1.0160   -1.5690 cp        1 MOL     -0.029100
     13 C8          2.5330    0.0520   -2.2330 ca        1 MOL      0.053000
     14 C9          2.5740    0.0720   -3.6280 ca        1 MOL      0.016000
     15 C10         2.0110   -0.9750   -4.3570 ca        1 MOL      0.037500
     16 C11         1.4070   -2.0420   -3.6930 ca        1 MOL      0.016000
     17 C12         1.3660   -2.0630   -2.2990 ca        1 MOL      0.053000
     18 Cl6         0.6140   -3.3920   -1.4570 cl        1 MOL     -0.032300
     19 Cl7         0.7040   -3.3520   -4.6030 cl        1 MOL     -0.027400
     20 Cl8         2.0640   -0.9490   -6.1000 cl        1 MOL     -0.026900
     21 Cl9         3.3310    1.4070   -4.4550 cl        1 MOL     -0.027400
     22 Cl10        3.2320    1.3560   -1.3100 cl        1 MOL     -0.032300
@<TRIPOS>BOND
     1    1    6 ar  
     2    1    2 ar  
     3    2    3 ar  
     4    3    4 ar  
     5    4    5 ar  
     6    5    6 ar  
     7    6    7 1   
     8    5    8 1   
     9    4    9 1   
    10    3   10 1   
    11    2   11 1   
    12    1   12 1   
    13   12   17 ar  
    14   12   13 ar  
    15   13   14 ar  
    16   14   15 ar  
    17   15   16 ar  
    18   16   17 ar  
    19   17   18 1   
    20   16   19 1   
    21   15   20 1   
    22   14   21 1   
    23   13   22 1   
@<TRIPOS>SUBSTRUCTURE
     1 MOL         1 TEMP              0 ****  ****    0 ROOT
