@<TRIPOS>MOLECULE
isobutyl
   17    16     1     0     0
SMALL
No Charge or Current Charge


@<TRIPOS>ATOM
      1 C1          0.9980   -0.3580   -0.2740 c3        1 MOL     -0.104500
      2 C2          1.8180    0.7470   -0.9440 c3        1 MOL     -0.094100
      3 C3          1.1580    1.1800   -2.2510 c3        1 MOL     -0.104500
      4 C4          1.9990    1.9490   -0.0130 c3        1 MOL      0.128100
      5 O1          2.6750    1.5480    1.1710 os        1 MOL     -0.349700
      6 N1          2.8850    2.6100    2.0940 no        1 MOL      0.374600
      7 O2          2.4720    3.7280    1.7800 o         1 MOL     -0.181500
      8 O3          3.4720    2.2480    3.1150 o         1 MOL     -0.181500
      9 H1          1.4670   -0.6730    0.6640 hc        1 MOL      0.045800
     10 H2          0.9140   -1.2370   -0.9220 hc        1 MOL      0.045800
     11 H3         -0.0130   -0.0120   -0.0380 hc        1 MOL      0.045800
     12 H4          2.8080    0.3290   -1.1710 hc        1 MOL      0.066100
     13 H5          1.7380    1.9710   -2.7370 hc        1 MOL      0.045800
     14 H6          0.1510    1.5700   -2.0670 hc        1 MOL      0.045800
     15 H7          1.0740    0.3420   -2.9520 hc        1 MOL      0.045800
     16 H8          2.6000    2.7250   -0.4990 h1        1 MOL      0.086000
     17 H9          1.0320    2.3810    0.2670 h1        1 MOL      0.086000
@<TRIPOS>BOND
     1    1    2 1   
     2    2    3 1   
     3    2    4 1   
     4    4    5 1   
     5    5    6 1   
     6    6    7 1   
     7    6    8 1   
     8    1    9 1   
     9    1   10 1   
    10    1   11 1   
    11    2   12 1   
    12    3   13 1   
    13    3   14 1   
    14    3   15 1   
    15    4   16 1   
    16    4   17 1   
@<TRIPOS>SUBSTRUCTURE
     1 MOL         1 TEMP              0 ****  ****    0 ROOT
