@<TRIPOS>MOLECULE
naphthalen-1-ol
   19    20     1     0     0
SMALL
No Charge or Current Charge


@<TRIPOS>ATOM
      1 C1         -0.4970   -2.0340    0.4940 ca        1 MOL     -0.114500
      2 C2          0.3500   -1.0280    0.0390 ca        1 MOL     -0.142000
      3 C3          1.6480   -1.3370   -0.3660 ca        1 MOL     -0.091300
      4 C4          2.1170   -2.6600   -0.3220 ca        1 MOL     -0.054100
      5 C5          1.2560   -3.6840    0.1400 ca        1 MOL     -0.009800
      6 C6         -0.0480   -3.3540    0.5450 ca        1 MOL     -0.130300
      7 C7          1.7240   -5.0070    0.1850 ca        1 MOL     -0.153300
      8 C8          3.0230   -5.3170   -0.2210 ca        1 MOL     -0.088700
      9 C9          3.8690   -4.3100   -0.6760 ca        1 MOL     -0.230300
     10 C10         3.4210   -2.9900   -0.7270 ca        1 MOL      0.143300
     11 O1          4.2870   -2.0360   -1.1800 oh        1 MOL     -0.498600
     12 H1         -1.5070   -1.7920    0.8100 ha        1 MOL      0.132400
     13 H2         -0.0000   -0.0000    0.0000 ha        1 MOL      0.133500
     14 H3          2.2840   -0.5260   -0.7170 ha        1 MOL      0.148600
     15 H4         -0.7270   -4.1250    0.9040 ha        1 MOL      0.133100
     16 H5          1.0800   -5.8100    0.5370 ha        1 MOL      0.134600
     17 H6          3.3730   -6.3440   -0.1820 ha        1 MOL      0.132500
     18 H7          4.8790   -4.5600   -0.9900 ha        1 MOL      0.133700
     19 H8          5.1350   -2.4430   -1.4130 ho        1 MOL      0.421400
@<TRIPOS>BOND
     1    1    6 ar  
     2    1    2 ar  
     3    2    3 ar  
     4    3    4 ar  
     5    4   10 ar  
     6    4    5 ar  
     7    5    6 ar  
     8    5    7 ar  
     9    7    8 ar  
    10    8    9 ar  
    11    9   10 ar  
    12   10   11 1   
    13    1   12 1   
    14    2   13 1   
    15    3   14 1   
    16    6   15 1   
    17    7   16 1   
    18    8   17 1   
    19    9   18 1   
    20   11   19 1   
@<TRIPOS>SUBSTRUCTURE
     1 MOL         1 TEMP              0 ****  ****    0 ROOT
