@<TRIPOS>MOLECULE
cyclohexanamine
   20    20     1     0     0
SMALL
No Charge or Current Charge


@<TRIPOS>ATOM
      1 C1          0.5640    0.5440   -0.7660 c3        1 MOL     -0.078400
      2 C2          0.3510   -0.1160   -2.1260 c3        1 MOL     -0.074000
      3 C3          1.0410    0.6630   -3.2440 c3        1 MOL     -0.093400
      4 C4          0.5980    2.1300   -3.2590 c3        1 MOL      0.165500
      5 C5          0.8240    2.7890   -1.8940 c3        1 MOL     -0.093400
      6 C6          0.1340    2.0080   -0.7770 c3        1 MOL     -0.074000
      7 N1          1.3310    2.8600   -4.2910 n3        1 MOL     -0.906700
      8 H1          1.6230    0.4770   -0.4910 hc        1 MOL      0.039200
      9 H2         -0.0000   -0.0000   -0.0000 hc        1 MOL      0.039200
     10 H3          0.7340   -1.1420   -2.1010 hc        1 MOL      0.040500
     11 H4         -0.7240   -0.1810   -2.3360 hc        1 MOL      0.040500
     12 H5          2.1280    0.5960   -3.1070 hc        1 MOL      0.041500
     13 H6          0.8130    0.1890   -4.2070 hc        1 MOL      0.041500
     14 H7         -0.4670    2.1770   -3.5040 h1        1 MOL      0.056900
     15 H8          1.8990    2.8500   -1.6760 hc        1 MOL      0.041500
     16 H9          0.4430    3.8180   -1.9020 hc        1 MOL      0.041500
     17 H10         0.3650    2.4670    0.1900 hc        1 MOL      0.040500
     18 H11        -0.9540    2.0690   -0.9090 hc        1 MOL      0.040500
     19 H12         0.9920    2.8130   -5.2260 hn        1 MOL      0.345600
     20 H13         2.2390    3.2010   -4.0660 hn        1 MOL      0.345600
@<TRIPOS>BOND
     1    1    6 1   
     2    1    2 1   
     3    2    3 1   
     4    3    4 1   
     5    4    5 1   
     6    5    6 1   
     7    4    7 1   
     8    1    8 1   
     9    1    9 1   
    10    2   10 1   
    11    2   11 1   
    12    3   12 1   
    13    3   13 1   
    14    4   14 1   
    15    5   15 1   
    16    5   16 1   
    17    6   17 1   
    18    6   18 1   
    19    7   19 1   
    20    7   20 1   
@<TRIPOS>SUBSTRUCTURE
     1 MOL         1 TEMP              0 ****  ****    0 ROOT
