@<TRIPOS>MOLECULE
1,2,3,4,7,8-hexachlorodibenzo-p-dioxin
   22    24     1     0     0
SMALL
No Charge or Current Charge


@<TRIPOS>ATOM
      1 C1         -1.4370   -1.5820    0.2690 ca        1 MOL     -0.103200
      2 C2         -2.7270   -1.9050    0.6890 ca        1 MOL      0.068200
      3 C3         -3.5800   -0.9100    1.1630 ca        1 MOL      0.068200
      4 C4         -3.1490    0.4150    1.2200 ca        1 MOL     -0.103100
      5 C5         -1.8580    0.7400    0.8000 ca        1 MOL      0.021000
      6 C6         -1.0040   -0.2570    0.3260 ca        1 MOL      0.021000
      7 Cl1         0.6060    0.0870   -0.2050 cl        1 MOL     -0.050100
      8 Cl2        -1.3750    2.3980    0.8910 cl        1 MOL     -0.050100
      9 O1         -4.8560   -1.1830    1.5850 os        1 MOL     -0.199400
     10 C7         -5.2390   -2.4980    1.5120 ca        1 MOL      0.081800
     11 C8         -4.3860   -3.4940    1.0380 ca        1 MOL      0.081800
     12 C9         -4.8170   -4.8180    0.9820 ca        1 MOL      0.029300
     13 C10        -6.1070   -5.1430    1.4010 ca        1 MOL      0.021600
     14 C11        -6.9620   -4.1460    1.8750 ca        1 MOL      0.021600
     15 C12        -6.5290   -2.8210    1.9320 ca        1 MOL      0.029300
     16 Cl3        -7.5650   -1.5540    2.5150 cl        1 MOL     -0.018400
     17 Cl4        -8.5740   -4.5510    2.3990 cl        1 MOL     -0.027500
     18 Cl5        -6.6460   -6.7990    1.3310 cl        1 MOL     -0.027500
     19 Cl6        -3.7250   -6.0330    0.3860 cl        1 MOL     -0.018400
     20 O2         -3.1090   -3.2200    0.6160 os        1 MOL     -0.199400
     21 H1         -0.7790   -2.3660   -0.1000 ha        1 MOL      0.176900
     22 H2         -3.8230    1.1830    1.5910 ha        1 MOL      0.176900
@<TRIPOS>BOND
     1    1    6 ar  
     2    1    2 ar  
     3    2   20 1   
     4    2    3 ar  
     5    3    4 ar  
     6    4    5 ar  
     7    5    6 ar  
     8    6    7 1   
     9    5    8 1   
    10    3    9 1   
    11    9   10 1   
    12   10   15 ar  
    13   10   11 ar  
    14   11   12 ar  
    15   12   13 ar  
    16   13   14 ar  
    17   14   15 ar  
    18   15   16 1   
    19   14   17 1   
    20   13   18 1   
    21   12   19 1   
    22   11   20 1   
    23    1   21 1   
    24    4   22 1   
@<TRIPOS>SUBSTRUCTURE
     1 MOL         1 TEMP              0 ****  ****    0 ROOT
