@<TRIPOS>MOLECULE
cyclopentanone
   14    14     1     0     0
SMALL
No Charge or Current Charge


@<TRIPOS>ATOM
      1 C1          1.0220   -0.7750    0.9550 c3        1 MOL     -0.082100
      2 C2          1.5580    0.3510    0.0820 c3        1 MOL     -0.082100
      3 C3          0.3280    1.1760   -0.2730 c3        1 MOL     -0.191300
      4 C4         -0.7500    0.1230   -0.3010 c         1 MOL      0.569700
      5 O1         -1.8730    0.3080   -0.7520 o         1 MOL     -0.526200
      6 C5         -0.2860   -1.1830    0.2890 c3        1 MOL     -0.191300
      7 H1          0.8290   -0.4020    1.9680 hc        1 MOL      0.050100
      8 H2          1.7230   -1.6120    1.0320 hc        1 MOL      0.050100
      9 H3          2.3200    0.9480    0.5930 hc        1 MOL      0.050100
     10 H4          2.0090   -0.0640   -0.8270 hc        1 MOL      0.050100
     11 H5          0.0940    1.9040    0.5090 hc        1 MOL      0.075800
     12 H6          0.4330    1.6650   -1.2440 hc        1 MOL      0.075800
     13 H7         -1.0060   -1.5730    1.0120 hc        1 MOL      0.075800
     14 H8         -0.1170   -1.9000   -0.5190 hc        1 MOL      0.075800
@<TRIPOS>BOND
     1    1    6 1   
     2    1    2 1   
     3    2    3 1   
     4    3    4 1   
     5    4    5 2   
     6    4    6 1   
     7    1    7 1   
     8    1    8 1   
     9    2    9 1   
    10    2   10 1   
    11    3   11 1   
    12    3   12 1   
    13    6   13 1   
    14    6   14 1   
@<TRIPOS>SUBSTRUCTURE
     1 MOL         1 TEMP              0 ****  ****    0 ROOT
