@<TRIPOS>MOLECULE
2-methoxyethanamine
   14    13     1     0     0
SMALL
No Charge or Current Charge


@<TRIPOS>ATOM
      1 C1         -0.5620   -4.0350    1.8950 c3        1 MOL      0.112000
      2 O1         -0.4500   -2.6240    2.0240 os        1 MOL     -0.410400
      3 C2         -0.3630   -1.9890    0.7540 c3        1 MOL      0.079700
      4 C3         -0.2450   -0.4880    0.9480 c3        1 MOL      0.148100
      5 N1         -0.1540    0.1770   -0.3720 n3        1 MOL     -0.901600
      6 H1         -0.6260   -4.4880    2.8870 h1        1 MOL      0.034300
      7 H2          0.3090   -4.4230    1.3610 h1        1 MOL      0.034300
      8 H3         -1.4670   -4.2690    1.3300 h1        1 MOL      0.034300
      9 H4          0.5270   -2.3720    0.2450 h1        1 MOL      0.022600
     10 H5         -1.2500   -2.2510    0.1680 h1        1 MOL      0.022600
     11 H6         -1.1160   -0.0870    1.4760 h1        1 MOL      0.066600
     12 H7          0.6600   -0.2470    1.5150 h1        1 MOL      0.066600
     13 H8         -1.0030    0.3590   -0.8420 hn        1 MOL      0.345600
     14 H9          0.7380    0.2160   -0.7940 hn        1 MOL      0.345600
@<TRIPOS>BOND
     1    1    2 1   
     2    2    3 1   
     3    3    4 1   
     4    4    5 1   
     5    1    6 1   
     6    1    7 1   
     7    1    8 1   
     8    3    9 1   
     9    3   10 1   
    10    4   11 1   
    11    4   12 1   
    12    5   13 1   
    13    5   14 1   
@<TRIPOS>SUBSTRUCTURE
     1 MOL         1 TEMP              0 ****  ****    0 ROOT
