@<TRIPOS>MOLECULE
pyrrole
   10    10     1     0     0
SMALL
No Charge or Current Charge


@<TRIPOS>ATOM
      1 C1          0.2890    0.0200    1.0410 cc        1 MOL     -0.196600
      2 C2          1.5200    0.4730    1.5760 cc        1 MOL     -0.196600
      3 C3          1.4580    0.3170    2.9430 cd        1 MOL     -0.170200
      4 N1          0.2320   -0.2130    3.2490 na        1 MOL     -0.181100
      5 C4         -0.4890   -0.3990    2.0980 cd        1 MOL     -0.170200
      6 H1         -0.0010    0.0000    0.0000 ha        1 MOL      0.150000
      7 H2          2.3610    0.8690    1.0240 ha        1 MOL      0.150000
      8 H3          2.1730    0.5360    3.7230 h4        1 MOL      0.162100
      9 H4         -0.0920   -0.4340    4.1810 hn        1 MOL      0.290400
     10 H5         -1.4870   -0.8130    2.1330 h4        1 MOL      0.162100
@<TRIPOS>BOND
     1    1    5 2   
     2    1    2 1   
     3    2    3 2   
     4    3    4 1   
     5    4    5 1   
     6    1    6 1   
     7    2    7 1   
     8    3    8 1   
     9    4    9 1   
    10    5   10 1   
@<TRIPOS>SUBSTRUCTURE
     1 MOL         1 TEMP              0 ****  ****    0 ROOT
