@<TRIPOS>MOLECULE
2,3,4-trimethylpentane
   26    25     1     0     0
SMALL
No Charge or Current Charge


@<TRIPOS>ATOM
      1 C1          0.0590    0.7130   -2.0780 c3        1 MOL     -0.090000
      2 C2          0.9440    0.3200   -0.8920 c3        1 MOL     -0.064600
      3 C3          2.1520    1.2620   -0.8190 c3        1 MOL     -0.090000
      4 C4          0.1740    0.2350    0.4650 c3        1 MOL     -0.052100
      5 C5         -0.4690    1.5810    0.8460 c3        1 MOL     -0.091100
      6 C6         -0.8810   -0.9190    0.5150 c3        1 MOL     -0.064600
      7 C7         -0.3800   -2.2050   -0.1550 c3        1 MOL     -0.090000
      8 C8         -1.2970   -1.2590    1.9540 c3        1 MOL     -0.090000
      9 H1         -0.8160    0.0620   -2.1640 hc        1 MOL      0.033100
     10 H2         -0.3050    1.7400   -1.9600 hc        1 MOL      0.033100
     11 H3          0.6100    0.6730   -3.0210 hc        1 MOL      0.033100
     12 H4          1.3620   -0.6710   -1.1060 hc        1 MOL      0.045000
     13 H5          2.8030    1.0020    0.0230 hc        1 MOL      0.033100
     14 H6          1.8540    2.3100   -0.7160 hc        1 MOL      0.033100
     15 H7          2.7500    1.1850   -1.7340 hc        1 MOL      0.033100
     16 H8          0.9260    0.0170    1.2380 hc        1 MOL      0.043800
     17 H9         -1.0080    1.5230    1.7960 hc        1 MOL      0.033700
     18 H10        -1.2090    1.8900    0.1010 hc        1 MOL      0.033700
     19 H11         0.2800    2.3750    0.9260 hc        1 MOL      0.033700
     20 H12        -1.7870   -0.5980   -0.0140 hc        1 MOL      0.045000
     21 H13        -1.1390   -2.9940   -0.1060 hc        1 MOL      0.033100
     22 H14        -0.1630   -2.0480   -1.2160 hc        1 MOL      0.033100
     23 H15         0.5260   -2.5780    0.3330 hc        1 MOL      0.033100
     24 H16        -2.0350   -2.0660    1.9790 hc        1 MOL      0.033100
     25 H17        -1.7220   -0.3860    2.4600 hc        1 MOL      0.033100
     26 H18        -0.4370   -1.6030    2.5390 hc        1 MOL      0.033100
@<TRIPOS>BOND
     1    1    2 1   
     2    2    3 1   
     3    2    4 1   
     4    4    5 1   
     5    4    6 1   
     6    6    7 1   
     7    6    8 1   
     8    1    9 1   
     9    1   10 1   
    10    1   11 1   
    11    2   12 1   
    12    3   13 1   
    13    3   14 1   
    14    3   15 1   
    15    4   16 1   
    16    5   17 1   
    17    5   18 1   
    18    5   19 1   
    19    6   20 1   
    20    7   21 1   
    21    7   22 1   
    22    7   23 1   
    23    8   24 1   
    24    8   25 1   
    25    8   26 1   
@<TRIPOS>SUBSTRUCTURE
     1 MOL         1 TEMP              0 ****  ****    0 ROOT
