@<TRIPOS>MOLECULE
4-methyl-1H-imidazole
   12    12     1     0     0
SMALL
No Charge or Current Charge


@<TRIPOS>ATOM
      1 C1         -0.2080    0.2980    0.1230 c3        1 MOL     -0.113700
      2 C2          0.6550   -0.7780   -0.3640 cc        1 MOL      0.305000
      3 C3          1.9500   -0.7740   -0.8260 cd        1 MOL     -0.257900
      4 N1          2.3540   -2.0370   -1.1810 na        1 MOL     -0.325800
      5 C4          1.3130   -2.8020   -0.9370 cd        1 MOL      0.388900
      6 N2          0.2600   -2.0840   -0.4420 nc        1 MOL     -0.668300
      7 H1         -0.0880    0.4140    1.2050 hc        1 MOL      0.046100
      8 H2          0.0380    1.2470   -0.3640 hc        1 MOL      0.046100
      9 H3         -1.2600    0.0850   -0.0960 hc        1 MOL      0.046100
     10 H4          2.6450    0.0470   -0.9370 h4        1 MOL      0.175700
     11 H5          3.2610   -2.2960   -1.5470 hn        1 MOL      0.298600
     12 H6          1.2800   -3.8700   -1.1020 h5        1 MOL      0.059100
@<TRIPOS>BOND
     1    1    2 1   
     2    2    6 1   
     3    2    3 2   
     4    3    4 1   
     5    4    5 1   
     6    5    6 2   
     7    1    7 1   
     8    1    8 1   
     9    1    9 1   
    10    3   10 1   
    11    4   11 1   
    12    5   12 1   
@<TRIPOS>SUBSTRUCTURE
     1 MOL         1 TEMP              0 ****  ****    0 ROOT
