@<TRIPOS>MOLECULE
1,2,4,5-tetrachloro-3-(3,4-dichlorophenyl)benzene
   22    23     1     0     0
SMALL
No Charge or Current Charge


@<TRIPOS>ATOM
      1 C1          1.8850   -1.0360   -0.1120 ca        1 MOL     -0.091600
      2 C2          2.9210   -1.6310    0.6080 ca        1 MOL     -0.119800
      3 C3          2.8780   -1.6520    2.0020 ca        1 MOL      0.026500
      4 C4          1.8000   -1.0790    2.6760 ca        1 MOL      0.014900
      5 C5          0.7640   -0.4840    1.9550 ca        1 MOL     -0.087700
      6 C6          0.8070   -0.4630    0.5610 cp        1 MOL     -0.046200
      7 C7         -0.2670    0.1540   -0.1870 cp        1 MOL     -0.020400
      8 C8         -0.2010    1.5090   -0.5130 ca        1 MOL      0.033300
      9 C9         -1.2360    2.1040   -1.2340 ca        1 MOL      0.019500
     10 C10        -2.3370    1.3450   -1.6300 ca        1 MOL     -0.104700
     11 C11        -2.4030   -0.0100   -1.3040 ca        1 MOL      0.019500
     12 C12        -1.3680   -0.6050   -0.5830 ca        1 MOL      0.033300
     13 Cl1        -1.4540   -2.2970   -0.1780 cl        1 MOL     -0.041300
     14 Cl2        -3.7990   -0.8870   -1.8290 cl        1 MOL     -0.051100
     15 Cl3        -1.2240    3.7780   -1.6750 cl        1 MOL     -0.051100
     16 Cl4         1.1720    2.4610   -0.0210 cl        1 MOL     -0.041300
     17 Cl5         1.6920   -1.0700    4.4010 cl        1 MOL     -0.063400
     18 Cl6         4.1940   -2.3990    2.8380 cl        1 MOL     -0.064000
     19 H1          1.9320   -1.0280   -1.1990 ha        1 MOL      0.150700
     20 H2          3.7530   -2.0750    0.0670 ha        1 MOL      0.154500
     21 H3         -0.0790   -0.0350    2.4780 ha        1 MOL      0.159600
     22 H4         -3.1430    1.8090   -2.1940 ha        1 MOL      0.170900
@<TRIPOS>BOND
     1    1    6 ar  
     2    1    2 ar  
     3    2    3 ar  
     4    3    4 ar  
     5    4    5 ar  
     6    5    6 ar  
     7    6    7 1   
     8    7   12 ar  
     9    7    8 ar  
    10    8    9 ar  
    11    9   10 ar  
    12   10   11 ar  
    13   11   12 ar  
    14   12   13 1   
    15   11   14 1   
    16    9   15 1   
    17    8   16 1   
    18    4   17 1   
    19    3   18 1   
    20    1   19 1   
    21    2   20 1   
    22    5   21 1   
    23   10   22 1   
@<TRIPOS>SUBSTRUCTURE
     1 MOL         1 TEMP              0 ****  ****    0 ROOT
