@<TRIPOS>MOLECULE
chloromethane
    5     4     1     0     0
SMALL
No Charge or Current Charge


@<TRIPOS>ATOM
      1 C1          0.0830   -0.0660   -0.0900 c3        1 MOL      0.013700
      2 Cl1        -0.9700    0.7710    1.0560 cl        1 MOL     -0.189000
      3 H1          0.7010    0.6690   -0.6100 h1        1 MOL      0.058400
      4 H2          0.7190   -0.7660    0.4550 h1        1 MOL      0.058400
      5 H3         -0.5330   -0.6080   -0.8110 h1        1 MOL      0.058400
@<TRIPOS>BOND
     1    1    2 1   
     2    1    3 1   
     3    1    4 1   
     4    1    5 1   
@<TRIPOS>SUBSTRUCTURE
     1 MOL         1 TEMP              0 ****  ****    0 ROOT
