@<TRIPOS>MOLECULE
(ethyldisulfanyl)ethane
   16    15     1     0     0
SMALL
No Charge or Current Charge


@<TRIPOS>ATOM
      1 C1         -0.2790    0.2910   -0.1360 c3        1 MOL     -0.095600
      2 C2          0.8110   -0.6600    0.3190 c3        1 MOL      0.012100
      3 S1          0.2410   -1.6600    1.7150 ss        1 MOL     -0.214000
      4 S2          1.8940   -2.8210    2.1000 ss        1 MOL     -0.214000
      5 C3          2.7900   -1.8010    3.2950 c3        1 MOL      0.012100
      6 C4          4.0760   -2.4830    3.7270 c3        1 MOL     -0.095500
      7 H1          0.0500    0.9050   -0.9810 hc        1 MOL      0.049800
      8 H2         -1.1870   -0.2480   -0.4290 hc        1 MOL      0.049800
      9 H3         -0.5470    0.9700    0.6810 hc        1 MOL      0.049800
     10 H4          1.6990   -0.0990    0.6270 h1        1 MOL      0.074000
     11 H5          1.0980   -1.3270   -0.4990 h1        1 MOL      0.074000
     12 H6          3.0140   -0.8300    2.8380 h1        1 MOL      0.074000
     13 H7          2.1480   -1.6230    4.1650 h1        1 MOL      0.074000
     14 H8          4.6290   -1.8750    4.4510 hc        1 MOL      0.049800
     15 H9          3.8790   -3.4640    4.1730 hc        1 MOL      0.049800
     16 H10         4.7280   -2.6390    2.8610 hc        1 MOL      0.049800
@<TRIPOS>BOND
     1    1    2 1   
     2    2    3 1   
     3    3    4 1   
     4    4    5 1   
     5    5    6 1   
     6    1    7 1   
     7    1    8 1   
     8    1    9 1   
     9    2   10 1   
    10    2   11 1   
    11    5   12 1   
    12    5   13 1   
    13    6   14 1   
    14    6   15 1   
    15    6   16 1   
@<TRIPOS>SUBSTRUCTURE
     1 MOL         1 TEMP              0 ****  ****    0 ROOT
