@<TRIPOS>MOLECULE
3-methylbutanoic
   17    16     1     0     0
SMALL
No Charge or Current Charge


@<TRIPOS>ATOM
      1 C1          1.0710    0.0460    1.7140 c3        1 MOL     -0.097100
      2 C2          0.5340   -0.3160    0.3280 c3        1 MOL     -0.059500
      3 C3          1.4320    0.2950   -0.7500 c3        1 MOL     -0.097100
      4 C4         -0.9200    0.1610    0.1860 c3        1 MOL     -0.169000
      5 C5         -1.8490   -0.4580    1.2040 c         1 MOL      0.625500
      6 O1         -1.7290   -1.5630    1.7110 o         1 MOL     -0.486700
      7 O2         -2.8430    0.4120    1.5190 oh        1 MOL     -0.586600
      8 H1          0.4410   -0.3840    2.5000 hc        1 MOL      0.040000
      9 H2          1.1010    1.1310    1.8590 hc        1 MOL      0.040000
     10 H3          2.0860   -0.3430    1.8520 hc        1 MOL      0.040000
     11 H4          0.5720   -1.4080    0.2270 hc        1 MOL      0.072300
     12 H5          1.0690    0.0510   -1.7550 hc        1 MOL      0.040000
     13 H6          1.4580    1.3860   -0.6580 hc        1 MOL      0.040000
     14 H7          2.4610   -0.0680   -0.6650 hc        1 MOL      0.040000
     15 H8         -1.2900   -0.0740   -0.8190 hc        1 MOL      0.068100
     16 H9         -0.9740    1.2470    0.3280 hc        1 MOL      0.068100
     17 H10        -2.7730    1.2470    1.0090 ho        1 MOL      0.422100
@<TRIPOS>BOND
     1    1    2 1   
     2    2    3 1   
     3    2    4 1   
     4    4    5 1   
     5    5    6 2   
     6    5    7 1   
     7    1    8 1   
     8    1    9 1   
     9    1   10 1   
    10    2   11 1   
    11    3   12 1   
    12    3   13 1   
    13    3   14 1   
    14    4   15 1   
    15    4   16 1   
    16    7   17 1   
@<TRIPOS>SUBSTRUCTURE
     1 MOL         1 TEMP              0 ****  ****    0 ROOT
