@<TRIPOS>MOLECULE
1-(4-methoxyphenyl)ethanone
   21    21     1     0     0
SMALL
No Charge or Current Charge


@<TRIPOS>ATOM
      1 C1          1.2630    0.1370   -2.2520 c3        1 MOL     -0.199300
      2 C2          1.9290   -1.0140   -1.5660 c         1 MOL      0.582000
      3 O1          2.4680   -1.8710   -2.2590 o         1 MOL     -0.538700
      4 C3          1.8850   -1.0360   -0.1120 ca        1 MOL     -0.213400
      5 C4          2.9210   -1.6310    0.6080 ca        1 MOL     -0.051300
      6 C5          2.8780   -1.6520    2.0020 ca        1 MOL     -0.193500
      7 C6          1.8000   -1.0790    2.6760 ca        1 MOL      0.148400
      8 C7          0.7640   -0.4840    1.9550 ca        1 MOL     -0.193500
      9 C8          0.8070   -0.4630    0.5610 ca        1 MOL     -0.051300
     10 O2          1.7570   -1.0990    4.0360 os        1 MOL     -0.323500
     11 C9          2.8490   -1.7220    4.7100 c3        1 MOL      0.110300
     12 H1          0.2010   -0.0340   -2.4880 hc        1 MOL      0.064400
     13 H2          1.7650    0.4380   -3.1840 hc        1 MOL      0.064400
     14 H3          1.2500    1.0540   -1.6370 hc        1 MOL      0.064400
     15 H4          3.7660   -2.0810    0.0940 ha        1 MOL      0.145600
     16 H5          3.6890   -2.1160    2.5580 ha        1 MOL      0.148200
     17 H6         -0.0790   -0.0360    2.4740 ha        1 MOL      0.148200
     18 H7         -0.0050    0.0040    0.0090 ha        1 MOL      0.145600
     19 H8          2.6810   -1.6640    5.7850 h1        1 MOL      0.047600
     20 H9          3.7720   -1.2120    4.4380 h1        1 MOL      0.047600
     21 H10         2.8960   -2.7650    4.3990 h1        1 MOL      0.047600
@<TRIPOS>BOND
     1    1    2 1   
     2    2    3 2   
     3    2    4 1   
     4    4    9 ar  
     5    4    5 ar  
     6    5    6 ar  
     7    6    7 ar  
     8    7    8 ar  
     9    8    9 ar  
    10    7   10 1   
    11   10   11 1   
    12    1   12 1   
    13    1   13 1   
    14    1   14 1   
    15    5   15 1   
    16    6   16 1   
    17    8   17 1   
    18    9   18 1   
    19   11   19 1   
    20   11   20 1   
    21   11   21 1   
@<TRIPOS>SUBSTRUCTURE
     1 MOL         1 TEMP              0 ****  ****    0 ROOT
