@<TRIPOS>MOLECULE
ethanethiol
    9     8     1     0     0
SMALL
No Charge or Current Charge


@<TRIPOS>ATOM
      1 C1          0.4410   -0.3500    0.9400 c3        1 MOL     -0.098800
      2 C2          1.8520   -0.8680    0.7340 c3        1 MOL      0.005900
      3 S1          2.9260    0.4450    0.0920 sh        1 MOL     -0.381100
      4 H1         -0.2220   -1.1310    1.3270 hc        1 MOL      0.043300
      5 H2          0.4210    0.4990    1.6310 hc        1 MOL      0.043300
      6 H3          0.0270   -0.0090   -0.0150 hc        1 MOL      0.043300
      7 H4          1.8500   -1.7010    0.0240 h1        1 MOL      0.072000
      8 H5          2.2640   -1.2290    1.6810 h1        1 MOL      0.072000
      9 H6          2.7670    1.2800    1.1280 hs        1 MOL      0.200100
@<TRIPOS>BOND
     1    1    2 1   
     2    2    3 1   
     3    1    4 1   
     4    1    5 1   
     5    1    6 1   
     6    2    7 1   
     7    2    8 1   
     8    3    9 1   
@<TRIPOS>SUBSTRUCTURE
     1 MOL         1 TEMP              0 ****  ****    0 ROOT
