@<TRIPOS>MOLECULE
1-bromo-4-methyl-benzene
   15    15     1     0     0
SMALL
No Charge or Current Charge


@<TRIPOS>ATOM
      1 C1          1.9310   -1.0140   -1.6030 c3        1 MOL     -0.057700
      2 C2          1.8850   -1.0360   -0.1120 ca        1 MOL     -0.061900
      3 C3          2.9210   -1.6310    0.6080 ca        1 MOL     -0.132300
      4 C4          2.8780   -1.6520    2.0020 ca        1 MOL     -0.099600
      5 C5          1.8000   -1.0790    2.6760 ca        1 MOL     -0.031800
      6 C6          0.7640   -0.4840    1.9550 ca        1 MOL     -0.099600
      7 C7          0.8070   -0.4630    0.5610 ca        1 MOL     -0.132300
      8 Br1         1.7400   -1.1090    4.5640 br        1 MOL     -0.091800
      9 H1          2.4380   -0.1080   -1.9480 hc        1 MOL      0.047600
     10 H2          2.4630   -1.8880   -1.9910 hc        1 MOL      0.047600
     11 H3          0.9200   -1.0360   -2.0250 hc        1 MOL      0.047600
     12 H4          3.7660   -2.0790    0.0920 ha        1 MOL      0.136800
     13 H5          3.6940   -2.1190    2.5490 ha        1 MOL      0.145400
     14 H6         -0.0840   -0.0330    2.4640 ha        1 MOL      0.145400
     15 H7         -0.0040    0.0030    0.0080 ha        1 MOL      0.136800
@<TRIPOS>BOND
     1    1    2 1   
     2    2    7 ar  
     3    2    3 ar  
     4    3    4 ar  
     5    4    5 ar  
     6    5    6 ar  
     7    6    7 ar  
     8    5    8 1   
     9    1    9 1   
    10    1   10 1   
    11    1   11 1   
    12    3   12 1   
    13    4   13 1   
    14    6   14 1   
    15    7   15 1   
@<TRIPOS>SUBSTRUCTURE
     1 MOL         1 TEMP              0 ****  ****    0 ROOT
