@<TRIPOS>MOLECULE
1-chlorohexane
   20    19     1     0     0
SMALL
No Charge or Current Charge


@<TRIPOS>ATOM
      1 C1          0.6710   -0.6450    0.5770 c3        1 MOL     -0.092300
      2 C2          0.0260   -1.0250    1.9000 c3        1 MOL     -0.079900
      3 C3          0.9420   -1.9260    2.7290 c3        1 MOL     -0.079100
      4 C4          0.2900   -2.3070    4.0610 c3        1 MOL     -0.078800
      5 C5          1.2090   -3.2090    4.8900 c3        1 MOL     -0.092200
      6 C6          0.6050   -3.6180    6.2290 c3        1 MOL      0.039700
      7 Cl1         1.6980   -4.6640    7.1640 cl        1 MOL     -0.201300
      8 H1          0.0090   -0.0000   -0.0110 hc        1 MOL      0.033800
      9 H2          0.8820   -1.5420   -0.0140 hc        1 MOL      0.033800
     10 H3          1.6140   -0.1140    0.7380 hc        1 MOL      0.033800
     11 H4         -0.2070   -0.1130    2.4620 hc        1 MOL      0.038500
     12 H5         -0.9230   -1.5370    1.7040 hc        1 MOL      0.038500
     13 H6          1.8910   -1.4110    2.9190 hc        1 MOL      0.041300
     14 H7          1.1750   -2.8350    2.1610 hc        1 MOL      0.041300
     15 H8         -0.6570   -2.8250    3.8700 hc        1 MOL      0.041800
     16 H9          0.0530   -1.3930    4.6190 hc        1 MOL      0.041800
     17 H10         2.1730   -2.7110    5.0510 hc        1 MOL      0.056400
     18 H11         1.4190   -4.1220    4.3180 hc        1 MOL      0.056400
     19 H12         0.3720   -2.7420    6.8410 h1        1 MOL      0.063300
     20 H13        -0.3200   -4.1790    6.0680 h1        1 MOL      0.063300
@<TRIPOS>BOND
     1    1    2 1   
     2    2    3 1   
     3    3    4 1   
     4    4    5 1   
     5    5    6 1   
     6    6    7 1   
     7    1    8 1   
     8    1    9 1   
     9    1   10 1   
    10    2   11 1   
    11    2   12 1   
    12    3   13 1   
    13    3   14 1   
    14    4   15 1   
    15    4   16 1   
    16    5   17 1   
    17    5   18 1   
    18    6   19 1   
    19    6   20 1   
@<TRIPOS>SUBSTRUCTURE
     1 MOL         1 TEMP              0 ****  ****    0 ROOT
