@<TRIPOS>MOLECULE
methyl
   29    28     1     0     0
SMALL
No Charge or Current Charge


@<TRIPOS>ATOM
      1 C1          0.7440    0.1620   -0.7800 c3        1 MOL     -0.092400
      2 C2          1.0050   -1.1130   -1.5650 c3        1 MOL     -0.080400
      3 C3          1.5220   -2.2320   -0.6610 c3        1 MOL     -0.082800
      4 C4          1.7830   -3.5130   -1.4540 c3        1 MOL     -0.079600
      5 C5          2.3010   -4.6320   -0.5490 c3        1 MOL     -0.078100
      6 C6          2.5620   -5.9150   -1.3450 c3        1 MOL     -0.077700
      7 C7          3.0810   -7.0530   -0.4670 c3        1 MOL     -0.126200
      8 C8          3.3440   -8.3280   -1.2370 c         1 MOL      0.628200
      9 O1          3.1720   -8.4730   -2.4390 o         1 MOL     -0.542300
     10 O2          3.8320   -9.2710   -0.3780 os        1 MOL     -0.443000
     11 C9          4.1600  -10.5330   -0.9700 c3        1 MOL      0.126100
     12 H1          0.3740    0.9580   -1.4350 hc        1 MOL      0.033500
     13 H2          1.6580    0.5160   -0.2910 hc        1 MOL      0.033500
     14 H3         -0.0080   -0.0170   -0.0050 hc        1 MOL      0.033500
     15 H4          0.0770   -1.4300   -2.0550 hc        1 MOL      0.037600
     16 H5          1.7350   -0.9060   -2.3560 hc        1 MOL      0.037600
     17 H6          2.4480   -1.9080   -0.1700 hc        1 MOL      0.042600
     18 H7          0.7900   -2.4320    0.1310 hc        1 MOL      0.042600
     19 H8          2.5150   -3.3120   -2.2460 hc        1 MOL      0.039300
     20 H9          0.8570   -3.8360   -1.9440 hc        1 MOL      0.039300
     21 H10         3.2290   -4.3090   -0.0620 hc        1 MOL      0.042700
     22 H11         1.5710   -4.8240    0.2460 hc        1 MOL      0.042700
     23 H12         1.6460   -6.2230   -1.8640 hc        1 MOL      0.056600
     24 H13         3.3110   -5.7050   -2.1190 hc        1 MOL      0.056600
     25 H14         4.0300   -6.7490   -0.0100 hc        1 MOL      0.080400
     26 H15         2.3610   -7.2580    0.3330 hc        1 MOL      0.080400
     27 H16         4.5350  -11.1960   -0.1940 h1        1 MOL      0.049800
     28 H17         4.9130  -10.3720   -1.7390 h1        1 MOL      0.049800
     29 H18         3.2570  -10.9470   -1.4120 h1        1 MOL      0.049800
@<TRIPOS>BOND
     1    1    2 1   
     2    2    3 1   
     3    3    4 1   
     4    4    5 1   
     5    5    6 1   
     6    6    7 1   
     7    7    8 1   
     8    8    9 2   
     9    8   10 1   
    10   10   11 1   
    11    1   12 1   
    12    1   13 1   
    13    1   14 1   
    14    2   15 1   
    15    2   16 1   
    16    3   17 1   
    17    3   18 1   
    18    4   19 1   
    19    4   20 1   
    20    5   21 1   
    21    5   22 1   
    22    6   23 1   
    23    6   24 1   
    24    7   25 1   
    25    7   26 1   
    26   11   27 1   
    27   11   28 1   
    28   11   29 1   
@<TRIPOS>SUBSTRUCTURE
     1 MOL         1 TEMP              0 ****  ****    0 ROOT
