@<TRIPOS>MOLECULE
2,3-dimethylnaphthalene
   24    25     1     0     0
SMALL
No Charge or Current Charge


@<TRIPOS>ATOM
      1 C1         -1.8900   -1.7250    0.9330 c3        1 MOL     -0.054200
      2 C2         -0.4970   -2.0340    0.4940 ca        1 MOL     -0.069600
      3 C3         -0.0480   -3.3540    0.5450 ca        1 MOL     -0.120900
      4 C4          1.2560   -3.6840    0.1400 ca        1 MOL     -0.035900
      5 C5          1.7240   -5.0070    0.1850 ca        1 MOL     -0.117100
      6 C6          3.0230   -5.3170   -0.2210 ca        1 MOL     -0.129000
      7 C7          3.8690   -4.3100   -0.6760 ca        1 MOL     -0.129000
      8 C8          3.4210   -2.9900   -0.7270 ca        1 MOL     -0.117100
      9 C9          2.1170   -2.6600   -0.3220 ca        1 MOL     -0.035900
     10 C10         1.6480   -1.3370   -0.3660 ca        1 MOL     -0.120900
     11 C11         0.3500   -1.0280    0.0390 ca        1 MOL     -0.069600
     12 C12        -0.1090    0.3930   -0.0240 c3        1 MOL     -0.054100
     13 H1         -2.5760   -1.7980    0.0840 hc        1 MOL      0.044400
     14 H2         -2.2170   -2.4200    1.7140 hc        1 MOL      0.044400
     15 H3         -1.9530   -0.7150    1.3530 hc        1 MOL      0.044400
     16 H4         -0.7190   -4.1330    0.9030 ha        1 MOL      0.131400
     17 H5          1.0800   -5.8100    0.5360 ha        1 MOL      0.131300
     18 H6          3.3730   -6.3440   -0.1810 ha        1 MOL      0.130700
     19 H7          4.8800   -4.5510   -0.9920 ha        1 MOL      0.130700
     20 H8          4.1000   -2.2200   -1.0860 ha        1 MOL      0.131300
     21 H9          2.3010   -0.5400   -0.7200 ha        1 MOL      0.131400
     22 H10        -0.5610    0.6030   -1.0000 hc        1 MOL      0.044400
     23 H11        -0.8490    0.6050    0.7580 hc        1 MOL      0.044400
     24 H12         0.7270    1.0860    0.1310 hc        1 MOL      0.044400
@<TRIPOS>BOND
     1    1    2 1   
     2    2   11 ar  
     3    2    3 ar  
     4    3    4 ar  
     5    4    9 ar  
     6    4    5 ar  
     7    5    6 ar  
     8    6    7 ar  
     9    7    8 ar  
    10    8    9 ar  
    11    9   10 ar  
    12   10   11 ar  
    13   11   12 1   
    14    1   13 1   
    15    1   14 1   
    16    1   15 1   
    17    3   16 1   
    18    5   17 1   
    19    6   18 1   
    20    7   19 1   
    21    8   20 1   
    22   10   21 1   
    23   12   22 1   
    24   12   23 1   
    25   12   24 1   
@<TRIPOS>SUBSTRUCTURE
     1 MOL         1 TEMP              0 ****  ****    0 ROOT
