@<TRIPOS>MOLECULE
1-butoxybutane
   27    26     1     0     0
SMALL
No Charge or Current Charge


@<TRIPOS>ATOM
      1 C1          0.7030   -2.2330   -0.7710 c3        1 MOL     -0.091900
      2 C2         -0.4190   -2.6450    0.1680 c3        1 MOL     -0.078300
      3 C3         -1.7780   -2.5830   -0.5230 c3        1 MOL     -0.084100
      4 C4         -2.9050   -2.9950    0.4140 c3        1 MOL      0.131800
      5 O1         -4.1380   -2.9160   -0.2880 os        1 MOL     -0.424700
      6 C5         -5.2330   -3.2900    0.5370 c3        1 MOL      0.131800
      7 C6         -6.5170   -3.1830   -0.2730 c3        1 MOL     -0.084100
      8 C7         -7.7390   -3.5720    0.5550 c3        1 MOL     -0.078300
      9 C8         -9.0190   -3.4640   -0.2570 c3        1 MOL     -0.091800
     10 H1          1.6740   -2.2800   -0.2670 hc        1 MOL      0.034400
     11 H2          0.7390   -2.8860   -1.6490 hc        1 MOL      0.034400
     12 H3          0.5500   -1.2060   -1.1170 hc        1 MOL      0.034400
     13 H4         -0.2310   -3.6630    0.5280 hc        1 MOL      0.038100
     14 H5         -0.4160   -1.9850    1.0440 hc        1 MOL      0.038100
     15 H6         -1.9690   -1.5690   -0.8960 hc        1 MOL      0.053800
     16 H7         -1.7850   -3.2330   -1.4070 hc        1 MOL      0.053800
     17 H8         -2.7670   -4.0240    0.7610 h1        1 MOL      0.023800
     18 H9         -2.9550   -2.3290    1.2820 h1        1 MOL      0.023800
     19 H10        -5.2600   -2.6210    1.4030 h1        1 MOL      0.023800
     20 H11        -5.0730   -4.3160    0.8830 h1        1 MOL      0.023800
     21 H12        -6.4410   -3.8230   -1.1610 hc        1 MOL      0.053800
     22 H13        -6.6250   -2.1590   -0.6500 hc        1 MOL      0.053800
     23 H14        -7.8150   -2.9220    1.4340 hc        1 MOL      0.038100
     24 H15        -7.6300   -4.6000    0.9200 hc        1 MOL      0.038100
     25 H16        -9.8900   -3.7450    0.3440 hc        1 MOL      0.034400
     26 H17        -9.1680   -2.4430   -0.6220 hc        1 MOL      0.034400
     27 H18        -8.9760   -4.1310   -1.1240 hc        1 MOL      0.034400
@<TRIPOS>BOND
     1    1    2 1   
     2    2    3 1   
     3    3    4 1   
     4    4    5 1   
     5    5    6 1   
     6    6    7 1   
     7    7    8 1   
     8    8    9 1   
     9    1   10 1   
    10    1   11 1   
    11    1   12 1   
    12    2   13 1   
    13    2   14 1   
    14    3   15 1   
    15    3   16 1   
    16    4   17 1   
    17    4   18 1   
    18    6   19 1   
    19    6   20 1   
    20    7   21 1   
    21    7   22 1   
    22    8   23 1   
    23    8   24 1   
    24    9   25 1   
    25    9   26 1   
    26    9   27 1   
@<TRIPOS>SUBSTRUCTURE
     1 MOL         1 TEMP              0 ****  ****    0 ROOT
