@<TRIPOS>MOLECULE
3,5-dimethylpyridine
   17    17     1     0     0
SMALL
No Charge or Current Charge


@<TRIPOS>ATOM
      1 C1          2.8850   -0.2660    3.6520 c3        1 MOL     -0.050100
      2 C2          1.6520   -0.6230    2.9000 ca        1 MOL     -0.187400
      3 C3          1.3880   -0.0680    1.6520 ca        1 MOL     -0.099500
      4 C4          0.2270   -0.4200    0.9730 ca        1 MOL     -0.187400
      5 C5         -0.6320   -1.3220    1.5800 ca        1 MOL      0.387700
      6 N1         -0.4090   -1.8820    2.7910 nb        1 MOL     -0.659400
      7 C6          0.7300   -1.5160    3.4210 ca        1 MOL      0.387700
      8 C7         -0.0850    0.1560   -0.3620 c3        1 MOL     -0.050100
      9 H1          3.6950   -0.9540    3.3920 hc        1 MOL      0.046700
     10 H2          3.2010    0.7570    3.4210 hc        1 MOL      0.046700
     11 H3          2.7110   -0.3150    4.7320 hc        1 MOL      0.046700
     12 H4          2.0870    0.6360    1.2090 ha        1 MOL      0.136900
     13 H5         -1.5540   -1.6340    1.0980 h4        1 MOL      0.020900
     14 H6          0.8820   -1.9800    4.3900 h4        1 MOL      0.020900
     15 H7          0.3330   -0.4710   -1.1600 hc        1 MOL      0.046700
     16 H8         -1.1700    0.2390   -0.5210 hc        1 MOL      0.046700
     17 H9          0.3270    1.1700   -0.4690 hc        1 MOL      0.046700
@<TRIPOS>BOND
     1    1    2 1   
     2    2    7 ar  
     3    2    3 ar  
     4    3    4 ar  
     5    4    5 ar  
     6    5    6 ar  
     7    6    7 ar  
     8    4    8 1   
     9    1    9 1   
    10    1   10 1   
    11    1   11 1   
    12    3   12 1   
    13    5   13 1   
    14    7   14 1   
    15    8   15 1   
    16    8   16 1   
    17    8   17 1   
@<TRIPOS>SUBSTRUCTURE
     1 MOL         1 TEMP              0 ****  ****    0 ROOT
