@<TRIPOS>MOLECULE
(1R,2S,5R)-2-isopropyl-5-methyl-cyclohexanol
   31    31     1     0     0
SMALL
No Charge or Current Charge


@<TRIPOS>ATOM
      1 C1          0.7610   -1.4080    2.2530 c3        1 MOL     -0.091000
      2 C2          0.9280    0.0810    1.9570 c3        1 MOL     -0.061600
      3 H1          0.0670    0.6090    2.3890 hc        1 MOL      0.048600
      4 C3          0.9450    0.3350    0.4450 c3        1 MOL     -0.075600
      5 C4          1.1550    1.8130    0.1250 c3        1 MOL     -0.077800
      6 C5          2.4290    2.3630    0.7780 c3        1 MOL     -0.049600
      7 H2          3.2990    1.8540    0.3390 hc        1 MOL      0.059800
      8 C6          2.4240    2.1030    2.2930 c3        1 MOL      0.143400
      9 H3          1.6380    2.7020    2.7700 h1        1 MOL      0.034800
     10 C7          2.2040    0.6220    2.6100 c3        1 MOL     -0.109600
     11 O1          3.6720    2.5110    2.8460 oh        1 MOL     -0.603100
     12 C8          2.5830    3.8550    0.4680 c3        1 MOL     -0.064000
     13 C9          2.6730    4.0790   -1.0390 c3        1 MOL     -0.089400
     14 C10         1.4220    4.6450    1.0630 c3        1 MOL     -0.089400
     15 H4          1.5980   -1.9780    1.8400 hc        1 MOL      0.034500
     16 H5          0.7220   -1.5840    3.3320 hc        1 MOL      0.034500
     17 H6         -0.1650   -1.7870    1.8090 hc        1 MOL      0.034500
     18 H7          1.7430   -0.2530   -0.0250 hc        1 MOL      0.042100
     19 H8         -0.0000    0.0000    0.0000 hc        1 MOL      0.042100
     20 H9          1.2070    1.9410   -0.9630 hc        1 MOL      0.044000
     21 H10         0.2830    2.3840    0.4690 hc        1 MOL      0.044000
     22 H11         3.0770    0.0450    2.2770 hc        1 MOL      0.045900
     23 H12         2.1600    0.4860    3.6980 hc        1 MOL      0.045900
     24 H13         3.6250    2.3300    3.7980 ho        1 MOL      0.397400
     25 H14         3.5140    4.2040    0.9270 hc        1 MOL      0.066400
     26 H15         2.7840    5.1430   -1.2790 hc        1 MOL      0.032200
     27 H16         1.7730    3.7110   -1.5420 hc        1 MOL      0.032200
     28 H17         3.5330    3.5470   -1.4580 hc        1 MOL      0.032200
     29 H18         1.5170    5.7160    0.8510 hc        1 MOL      0.032200
     30 H19         1.3860    4.5180    2.1500 hc        1 MOL      0.032200
     31 H20         0.4660    4.3020    0.6540 hc        1 MOL      0.032200
@<TRIPOS>BOND
     1    1    2 1   
     2    2    3 1   
     3    2   10 1   
     4    2    4 1   
     5    4    5 1   
     6    5    6 1   
     7    6    7 1   
     8    6    8 1   
     9    8    9 1   
    10    8   10 1   
    11    8   11 1   
    12    6   12 1   
    13   12   13 1   
    14   12   14 1   
    15    1   15 1   
    16    1   16 1   
    17    1   17 1   
    18    4   18 1   
    19    4   19 1   
    20    5   20 1   
    21    5   21 1   
    22   10   22 1   
    23   10   23 1   
    24   11   24 1   
    25   12   25 1   
    26   13   26 1   
    27   13   27 1   
    28   13   28 1   
    29   14   29 1   
    30   14   30 1   
    31   14   31 1   
@<TRIPOS>SUBSTRUCTURE
     1 MOL         1 TEMP              0 ****  ****    0 ROOT
