@<TRIPOS>MOLECULE
N,N-dimethyl-4-nitro-benzamide
   24    24     1     0     0
SMALL
No Charge or Current Charge


@<TRIPOS>ATOM
      1 C1          1.0810   -0.1530   -0.2190 c3        1 MOL      0.079700
      2 N1          1.5190    0.5270   -1.4290 n         1 MOL     -0.475800
      3 C2          1.0620   -0.0610   -2.6860 c3        1 MOL      0.079700
      4 C3          2.3230    1.6660   -1.3230 c         1 MOL      0.663900
      5 O1          2.7120    2.1690   -0.2700 o         1 MOL     -0.580200
      6 C4          2.7670    2.3260   -2.5620 ca        1 MOL     -0.085400
      7 C5          3.9650    1.9430   -3.1650 ca        1 MOL     -0.111700
      8 C6          4.3850    2.5680   -4.3390 ca        1 MOL     -0.070600
      9 C7          3.6080    3.5760   -4.9090 ca        1 MOL     -0.167100
     10 C8          2.4100    3.9590   -4.3060 ca        1 MOL     -0.070600
     11 C9          1.9900    3.3340   -3.1320 ca        1 MOL     -0.111700
     12 N2          4.0370    4.2120   -6.1040 no        1 MOL      0.311900
     13 O2          3.3230    5.1160   -6.6020 o         1 MOL     -0.204100
     14 O3          5.1170    3.8520   -6.6310 o         1 MOL     -0.204100
     15 H1          1.8070   -0.9190    0.0650 h1        1 MOL      0.046200
     16 H2          0.1110   -0.6310   -0.3830 h1        1 MOL      0.046200
     17 H3          0.9850    0.5620    0.6030 h1        1 MOL      0.046200
     18 H4          0.1130    0.3880   -2.9600 h1        1 MOL      0.046200
     19 H5          0.9410   -1.1320   -2.5530 h1        1 MOL      0.046200
     20 H6          1.8000    0.1330   -3.4570 h1        1 MOL      0.046200
     21 H7          4.5780    1.1580   -2.7290 ha        1 MOL      0.158900
     22 H8          5.3210    2.2590   -4.8000 ha        1 MOL      0.175600
     23 H9          1.7950    4.7430   -4.7400 ha        1 MOL      0.175600
     24 H10         1.0550    3.6410   -2.6690 ha        1 MOL      0.158900
@<TRIPOS>BOND
     1    1    2 1   
     2    2    3 1   
     3    2    4 1   
     4    4    5 2   
     5    4    6 1   
     6    6   11 ar  
     7    6    7 ar  
     8    7    8 ar  
     9    8    9 ar  
    10    9   10 ar  
    11   10   11 ar  
    12    9   12 1   
    13   12   13 1   
    14   12   14 1   
    15    1   15 1   
    16    1   16 1   
    17    1   17 1   
    18    3   18 1   
    19    3   19 1   
    20    3   20 1   
    21    7   21 1   
    22    8   22 1   
    23   10   23 1   
    24   11   24 1   
@<TRIPOS>SUBSTRUCTURE
     1 MOL         1 TEMP              0 ****  ****    0 ROOT
