@<TRIPOS>MOLECULE
2,3-dimethylphenol
   19    19     1     0     0
SMALL
No Charge or Current Charge


@<TRIPOS>ATOM
      1 C1          1.9550   -1.0270   -1.6040 c3        1 MOL     -0.055500
      2 C2          1.8850   -1.0360   -0.1120 ca        1 MOL     -0.045900
      3 C3          2.9210   -1.6310    0.6080 ca        1 MOL     -0.161900
      4 C4          2.8780   -1.6520    2.0020 ca        1 MOL     -0.093700
      5 C5          1.8000   -1.0790    2.6760 ca        1 MOL     -0.214600
      6 C6          0.7640   -0.4840    1.9550 ca        1 MOL      0.121800
      7 C7          0.8070   -0.4630    0.5610 ca        1 MOL     -0.098500
      8 C8         -0.3070    0.1740   -0.2070 c3        1 MOL     -0.045800
      9 O1         -0.2820    0.0700    2.6310 oh        1 MOL     -0.500400
     10 H1          2.4690   -0.1250   -1.9500 hc        1 MOL      0.046200
     11 H2          2.4930   -1.9050   -1.9760 hc        1 MOL      0.046200
     12 H3          0.9520   -1.0530   -2.0430 hc        1 MOL      0.046200
     13 H4          3.7660   -2.0800    0.0930 ha        1 MOL      0.132300
     14 H5          3.6860   -2.1130    2.5630 ha        1 MOL      0.131500
     15 H6          1.7720   -1.0990    3.7620 ha        1 MOL      0.131700
     16 H7         -0.0940    1.2360   -0.3720 hc        1 MOL      0.047700
     17 H8         -0.4450   -0.3120   -1.1800 hc        1 MOL      0.047700
     18 H9         -1.2580    0.0870    0.3320 hc        1 MOL      0.047700
     19 H10        -0.1540   -0.0320    3.5870 ho        1 MOL      0.417200
@<TRIPOS>BOND
     1    1    2 1   
     2    2    7 ar  
     3    2    3 ar  
     4    3    4 ar  
     5    4    5 ar  
     6    5    6 ar  
     7    6    7 ar  
     8    7    8 1   
     9    6    9 1   
    10    1   10 1   
    11    1   11 1   
    12    1   12 1   
    13    3   13 1   
    14    4   14 1   
    15    5   15 1   
    16    8   16 1   
    17    8   17 1   
    18    8   18 1   
    19    9   19 1   
@<TRIPOS>SUBSTRUCTURE
     1 MOL         1 TEMP              0 ****  ****    0 ROOT
