@<TRIPOS>MOLECULE
N-methylmethanamine
   10     9     1     0     0
SMALL
No Charge or Current Charge


@<TRIPOS>ATOM
      1 C1          1.0280    0.1350    0.3510 c3        1 MOL      0.147500
      2 N1          1.0300    0.2820    1.8000 n3        1 MOL     -0.822500
      3 C2          2.3860    0.4590    2.3030 c3        1 MOL      0.147500
      4 H1          0.0050    0.0040   -0.0120 h1        1 MOL      0.028400
      5 H2          1.6190   -0.7370    0.0590 h1        1 MOL      0.028400
      6 H3          1.4570    1.0230   -0.1200 h1        1 MOL      0.028400
      7 H4          0.6210   -0.5500    2.2230 hn        1 MOL      0.357100
      8 H5          2.3530    0.5660    3.3840 h1        1 MOL      0.028400
      9 H6          2.8200    1.3500    1.8590 h1        1 MOL      0.028400
     10 H7          2.9820   -0.4100    2.0380 h1        1 MOL      0.028400
@<TRIPOS>BOND
     1    1    2 1   
     2    2    3 1   
     3    1    4 1   
     4    1    5 1   
     5    1    6 1   
     6    2    7 1   
     7    3    8 1   
     8    3    9 1   
     9    3   10 1   
@<TRIPOS>SUBSTRUCTURE
     1 MOL         1 TEMP              0 ****  ****    0 ROOT
