@<TRIPOS>MOLECULE
methylcyclohexane
   21    21     1     0     0
SMALL
No Charge or Current Charge


@<TRIPOS>ATOM
      1 C1          3.3740   -3.4620   -2.4150 c3        1 MOL     -0.088900
      2 C2          2.1480   -2.7020   -1.9120 c3        1 MOL     -0.066100
      3 C3          2.0620   -2.7650   -0.3810 c3        1 MOL     -0.072400
      4 C4          0.8740   -1.9670    0.1500 c3        1 MOL     -0.075700
      5 C5          0.8990   -0.5230   -0.3430 c3        1 MOL     -0.075900
      6 C6          0.9870   -0.4520   -1.8650 c3        1 MOL     -0.075700
      7 C7          2.1750   -1.2470   -2.3990 c3        1 MOL     -0.072400
      8 H1          3.3520   -4.5000   -2.0670 hc        1 MOL      0.033200
      9 H2          3.4020   -3.4670   -3.5090 hc        1 MOL      0.033200
     10 H3          4.2930   -2.9950   -2.0490 hc        1 MOL      0.033200
     11 H4          1.2560   -3.1890   -2.3280 hc        1 MOL      0.044900
     12 H5          1.9730   -3.8080   -0.0540 hc        1 MOL      0.038600
     13 H6          2.9860   -2.3710    0.0610 hc        1 MOL      0.038600
     14 H7         -0.0600   -2.4460   -0.1710 hc        1 MOL      0.037900
     15 H8          0.8790   -1.9820    1.2460 hc        1 MOL      0.037900
     16 H9         -0.0010   -0.0010   -0.0000 hc        1 MOL      0.038400
     17 H10         1.7600   -0.0040    0.0960 hc        1 MOL      0.038400
     18 H11         0.0600   -0.8420   -2.3030 hc        1 MOL      0.037900
     19 H12         1.0720    0.5950   -2.1790 hc        1 MOL      0.037900
     20 H13         2.1660   -1.2190   -3.4950 hc        1 MOL      0.038600
     21 H14         3.1070   -0.7630   -2.0770 hc        1 MOL      0.038600
@<TRIPOS>BOND
     1    1    2 1   
     2    2    7 1   
     3    2    3 1   
     4    3    4 1   
     5    4    5 1   
     6    5    6 1   
     7    6    7 1   
     8    1    8 1   
     9    1    9 1   
    10    1   10 1   
    11    2   11 1   
    12    3   12 1   
    13    3   13 1   
    14    4   14 1   
    15    4   15 1   
    16    5   16 1   
    17    5   17 1   
    18    6   18 1   
    19    6   19 1   
    20    7   20 1   
    21    7   21 1   
@<TRIPOS>SUBSTRUCTURE
     1 MOL         1 TEMP              0 ****  ****    0 ROOT
