@<TRIPOS>MOLECULE
dimethoxy-(4-nitrophenoxy)-thioxo-$l^{5}-phosphane
   26    26     1     0     0
SMALL
No Charge or Current Charge


@<TRIPOS>ATOM
      1 C1         -0.0170    0.3800   -0.6300 c3        1 MOL      0.140700
      2 O1          0.6450   -0.3890   -1.6210 os        1 MOL     -0.529700
      3 P1         -0.2260   -1.2120   -2.7240 p5        1 MOL      1.234800
      4 S1         -1.4460   -2.5580   -2.0140 s         1 MOL     -0.587300
      5 O2          0.9500   -1.7250   -3.7250 os        1 MOL     -0.529700
      6 C2          1.9860   -2.5550   -3.2280 c3        1 MOL      0.140700
      7 O3         -0.8840    0.0040   -3.5710 os        1 MOL     -0.464200
      8 C3         -1.7270   -0.1140   -4.6430 ca        1 MOL      0.166000
      9 C4         -1.6290   -1.2190   -5.4890 ca        1 MOL     -0.143800
     10 C5         -2.4880   -1.3390   -6.5810 ca        1 MOL     -0.054900
     11 C6         -3.4450   -0.3540   -6.8280 ca        1 MOL     -0.177700
     12 C7         -3.5430    0.7500   -5.9820 ca        1 MOL     -0.054900
     13 C8         -2.6840    0.8710   -4.8890 ca        1 MOL     -0.143800
     14 N1         -4.3190   -0.4770   -7.9400 no        1 MOL      0.314000
     15 O4         -5.1730    0.4200   -8.1440 o         1 MOL     -0.202300
     16 O5         -4.2140   -1.4780   -8.6880 o         1 MOL     -0.202300
     17 H1          0.7240    0.8570    0.0160 h1        1 MOL      0.065000
     18 H2         -0.6670   -0.2700   -0.0390 h1        1 MOL      0.065000
     19 H3         -0.6200    1.1480   -1.1200 h1        1 MOL      0.065000
     20 H4          2.6780   -2.7970   -4.0380 h1        1 MOL      0.065000
     21 H5          1.5530   -3.4700   -2.8180 h1        1 MOL      0.065000
     22 H6          2.5200   -2.0210   -2.4410 h1        1 MOL      0.065000
     23 H7         -0.8860   -1.9890   -5.3020 ha        1 MOL      0.172600
     24 H8         -2.4010   -2.2050   -7.2330 ha        1 MOL      0.179500
     25 H9         -4.2840    1.5250   -6.1620 ha        1 MOL      0.179500
     26 H10        -2.7650    1.7330   -4.2340 ha        1 MOL      0.172600
@<TRIPOS>BOND
     1    1    2 1   
     2    2    3 1   
     3    3    4 2   
     4    3    5 1   
     5    5    6 1   
     6    3    7 1   
     7    7    8 1   
     8    8   13 ar  
     9    8    9 ar  
    10    9   10 ar  
    11   10   11 ar  
    12   11   12 ar  
    13   12   13 ar  
    14   11   14 1   
    15   14   15 1   
    16   14   16 1   
    17    1   17 1   
    18    1   18 1   
    19    1   19 1   
    20    6   20 1   
    21    6   21 1   
    22    6   22 1   
    23    9   23 1   
    24   10   24 1   
    25   12   25 1   
    26   13   26 1   
@<TRIPOS>SUBSTRUCTURE
     1 MOL         1 TEMP              0 ****  ****    0 ROOT
