@<TRIPOS>MOLECULE
2-ethoxyethanol
   16    15     1     0     0
SMALL
No Charge or Current Charge


@<TRIPOS>ATOM
      1 C1         -2.0380    0.0800    3.9170 c3        1 MOL     -0.095900
      2 C2         -2.1480    0.3170    2.4250 c3        1 MOL      0.129300
      3 O1         -0.8530    0.2360    1.8470 os        1 MOL     -0.417000
      4 C3         -0.8940    0.4510    0.4420 c3        1 MOL      0.122700
      5 C4          0.5140    0.3530   -0.1150 c3        1 MOL      0.131100
      6 O2          1.3270    1.3430    0.5020 oh        1 MOL     -0.596300
      7 H1         -3.0210    0.1360    4.3940 hc        1 MOL      0.044900
      8 H2         -1.6010   -0.9020    4.1210 hc        1 MOL      0.044900
      9 H3         -1.3800    0.8240    4.3770 hc        1 MOL      0.044900
     10 H4         -2.5640    1.3080    2.2230 h1        1 MOL      0.022100
     11 H5         -2.7880   -0.4410    1.9630 h1        1 MOL      0.022100
     12 H6         -1.5460   -0.3090   -0.0000 h1        1 MOL      0.036900
     13 H7         -1.3090    1.4460    0.2590 h1        1 MOL      0.036900
     14 H8          0.5240    0.5280   -1.1960 h1        1 MOL      0.035900
     15 H9          0.9440   -0.6290    0.1030 h1        1 MOL      0.035900
     16 H10         2.2150    1.2510    0.1230 ho        1 MOL      0.401500
@<TRIPOS>BOND
     1    1    2 1   
     2    2    3 1   
     3    3    4 1   
     4    4    5 1   
     5    5    6 1   
     6    1    7 1   
     7    1    8 1   
     8    1    9 1   
     9    2   10 1   
    10    2   11 1   
    11    4   12 1   
    12    4   13 1   
    13    5   14 1   
    14    5   15 1   
    15    6   16 1   
@<TRIPOS>SUBSTRUCTURE
     1 MOL         1 TEMP              0 ****  ****    0 ROOT
