@<TRIPOS>MOLECULE
methyl
    8     7     1     0     0
SMALL
No Charge or Current Charge


@<TRIPOS>ATOM
      1 C1          0.3500   -1.0340    0.0710 c3        1 MOL      0.123500
      2 O1          1.5790   -1.1920   -0.6450 os        1 MOL     -0.449900
      3 C2          1.5120   -0.9360   -1.9770 c         1 MOL      0.627600
      4 O2          0.5330   -0.5920   -2.6210 o         1 MOL     -0.538000
      5 H1          0.5110   -1.2620    1.1280 h1        1 MOL      0.051700
      6 H2         -0.4050   -1.7060   -0.3460 h1        1 MOL      0.051700
      7 H3          0.0110   -0.0010   -0.0280 h1        1 MOL      0.051700
      8 H4          2.5110   -1.0900   -2.4120 h5        1 MOL      0.081600
@<TRIPOS>BOND
     1    1    2 1   
     2    2    3 1   
     3    3    4 2   
     4    1    5 1   
     5    1    6 1   
     6    1    7 1   
     7    3    8 1   
@<TRIPOS>SUBSTRUCTURE
     1 MOL         1 TEMP              0 ****  ****    0 ROOT
