@<TRIPOS>MOLECULE
o-xylene
   18    18     1     0     0
SMALL
No Charge or Current Charge


@<TRIPOS>ATOM
      1 C1          1.9530   -1.0260   -1.6040 c3        1 MOL     -0.054000
      2 C2          1.8850   -1.0360   -0.1120 ca        1 MOL     -0.075200
      3 C3          2.9210   -1.6310    0.6080 ca        1 MOL     -0.128900
      4 C4          2.8780   -1.6520    2.0020 ca        1 MOL     -0.130900
      5 C5          1.8000   -1.0790    2.6760 ca        1 MOL     -0.130900
      6 C6          0.7640   -0.4840    1.9550 ca        1 MOL     -0.128900
      7 C7          0.8070   -0.4630    0.5610 ca        1 MOL     -0.075200
      8 C8         -0.3140    0.1790   -0.1890 c3        1 MOL     -0.053900
      9 H1          2.4670   -0.1230   -1.9490 hc        1 MOL      0.043300
     10 H2          2.4910   -1.9040   -1.9770 hc        1 MOL      0.043300
     11 H3          0.9500   -1.0510   -2.0420 hc        1 MOL      0.043300
     12 H4          3.7660   -2.0800    0.0930 ha        1 MOL      0.129200
     13 H5          3.6850   -2.1140    2.5630 ha        1 MOL      0.129800
     14 H6          1.7670   -1.0950    3.7610 ha        1 MOL      0.129800
     15 H7         -0.0720   -0.0400    2.4890 ha        1 MOL      0.129200
     16 H8         -0.1030    1.2420   -0.3510 hc        1 MOL      0.043300
     17 H9         -0.4640   -0.3000   -1.1640 hc        1 MOL      0.043300
     18 H10        -1.2600    0.0900    0.3590 hc        1 MOL      0.043300
@<TRIPOS>BOND
     1    1    2 1   
     2    2    7 ar  
     3    2    3 ar  
     4    3    4 ar  
     5    4    5 ar  
     6    5    6 ar  
     7    6    7 ar  
     8    7    8 1   
     9    1    9 1   
    10    1   10 1   
    11    1   11 1   
    12    3   12 1   
    13    4   13 1   
    14    5   14 1   
    15    6   15 1   
    16    8   16 1   
    17    8   17 1   
    18    8   18 1   
@<TRIPOS>SUBSTRUCTURE
     1 MOL         1 TEMP              0 ****  ****    0 ROOT
