@<TRIPOS>MOLECULE
[(1S)-1-methyl-3-nitrooxy-propyl]
   20    19     1     0     0
SMALL
No Charge or Current Charge


@<TRIPOS>ATOM
      1 C1          0.4750    0.8170   -0.5530 c3        1 MOL     -0.143400
      2 C2          0.5700    0.4920   -2.0370 c3        1 MOL      0.153700
      3 H1          1.0120    1.3450   -2.5640 h1        1 MOL      0.069300
      4 C3          1.4090   -0.7630   -2.2850 c3        1 MOL     -0.087300
      5 C4          1.5160   -1.1080   -3.7660 c3        1 MOL      0.124400
      6 O1          2.3070   -2.2800   -3.9070 os        1 MOL     -0.347100
      7 N1          2.4740   -2.6940   -5.2580 no        1 MOL      0.378600
      8 O2          1.9330   -2.0160   -6.1340 o         1 MOL     -0.174400
      9 O3          3.1610   -3.7110   -5.3660 o         1 MOL     -0.174400
     10 O4         -0.7470    0.3090   -2.5500 os        1 MOL     -0.365300
     11 N2         -1.4200    1.5300   -2.8270 no        1 MOL      0.369200
     12 O5         -0.8160    2.5810   -2.6030 o         1 MOL     -0.159000
     13 O6         -2.5560    1.3570   -3.2700 o         1 MOL     -0.159000
     14 H2          0.0380   -0.0130    0.0090 hc        1 MOL      0.063700
     15 H3         -0.1320    1.7140   -0.3850 hc        1 MOL      0.063700
     16 H4          1.4700    1.0300   -0.1460 hc        1 MOL      0.063700
     17 H5          2.4160   -0.6350   -1.8690 hc        1 MOL      0.087100
     18 H6          0.9690   -1.6230   -1.7620 hc        1 MOL      0.087100
     19 H7          0.5310   -1.3030   -4.2000 h1        1 MOL      0.074700
     20 H8          1.9970   -0.2960   -4.3210 h1        1 MOL      0.074700
@<TRIPOS>BOND
     1    1    2 1   
     2    2    3 1   
     3    2    4 1   
     4    4    5 1   
     5    5    6 1   
     6    6    7 1   
     7    7    8 1   
     8    7    9 1   
     9    2   10 1   
    10   10   11 1   
    11   11   12 1   
    12   11   13 1   
    13    1   14 1   
    14    1   15 1   
    15    1   16 1   
    16    4   17 1   
    17    4   18 1   
    18    5   19 1   
    19    5   20 1   
@<TRIPOS>SUBSTRUCTURE
     1 MOL         1 TEMP              0 ****  ****    0 ROOT
