@<TRIPOS>MOLECULE
[2-(dimethylamino)-5,6-dimethyl-pyrimidin-4-yl]
   35    35     1     0     0
SMALL
No Charge or Current Charge


@<TRIPOS>ATOM
      1 C1          4.4470   -1.3100    1.1860 c3        1 MOL     -0.027100
      2 C2          4.1120   -2.6610    1.7100 ca        1 MOL     -0.359100
      3 C3          4.9010   -3.7670    1.4640 ca        1 MOL      0.489900
      4 N1          4.6230   -5.0040    1.9250 nb        1 MOL     -0.758400
      5 C4          3.4990   -5.0970    2.6600 ca        1 MOL      0.900900
      6 N2          2.6490   -4.0990    2.9690 nb        1 MOL     -0.753900
      7 C5          2.9870   -2.8900    2.4760 ca        1 MOL      0.699200
      8 O1          2.1240   -1.8310    2.7800 os        1 MOL     -0.490800
      9 C6          1.9790   -1.5860    4.1480 c         1 MOL      0.761400
     10 O2          2.5550   -2.2390    5.0170 o         1 MOL     -0.553900
     11 N3          1.1090   -0.5210    4.4100 n         1 MOL     -0.465000
     12 C7          0.8350   -0.1210    5.7830 c3        1 MOL      0.092000
     13 C8          0.4330    0.2490    3.3710 c3        1 MOL      0.092000
     14 N4          3.1760   -6.3780    3.1590 nh        1 MOL     -0.758000
     15 C9          4.0330   -7.5110    2.8770 c3        1 MOL      0.206300
     16 C10         1.9930   -6.5700    3.9720 c3        1 MOL      0.206300
     17 C11         6.1440   -3.6410    0.6460 c3        1 MOL     -0.155200
     18 H1          5.0720   -0.7740    1.9060 hc        1 MOL      0.045100
     19 H2          4.9850   -1.3820    0.2350 hc        1 MOL      0.045100
     20 H3          3.5390   -0.7270    1.0010 hc        1 MOL      0.045100
     21 H4          1.5590    0.6310    6.0860 h1        1 MOL      0.047700
     22 H5          0.9140   -0.9890    6.4330 h1        1 MOL      0.047700
     23 H6         -0.1690    0.2910    5.8430 h1        1 MOL      0.047700
     24 H7         -0.5220   -0.2170    3.1500 h1        1 MOL      0.047700
     25 H8          1.0530    0.2650    2.4790 h1        1 MOL      0.047700
     26 H9          0.2750    1.2630    3.7270 h1        1 MOL      0.047700
     27 H10         3.6210   -8.4050    3.3440 h1        1 MOL      0.046000
     28 H11         5.0310   -7.3240    3.2720 h1        1 MOL      0.046000
     29 H12         4.0960   -7.6630    1.8000 h1        1 MOL      0.046000
     30 H13         1.9150   -7.6180    4.2600 h1        1 MOL      0.046000
     31 H14         1.1080   -6.2850    3.4040 h1        1 MOL      0.046000
     32 H15         2.0590   -5.9530    4.8680 h1        1 MOL      0.046000
     33 H16         7.0010   -3.4130    1.2900 hc        1 MOL      0.058600
     34 H17         6.3550   -4.5680    0.0990 hc        1 MOL      0.058600
     35 H18         6.0470   -2.8440   -0.1030 hc        1 MOL      0.058600
@<TRIPOS>BOND
     1    1    2 1   
     2    2    7 ar  
     3    2    3 ar  
     4    3    4 ar  
     5    4    5 ar  
     6    5    6 ar  
     7    6    7 ar  
     8    7    8 1   
     9    8    9 1   
    10    9   10 2   
    11    9   11 1   
    12   11   12 1   
    13   11   13 1   
    14    5   14 1   
    15   14   15 1   
    16   14   16 1   
    17    3   17 1   
    18    1   18 1   
    19    1   19 1   
    20    1   20 1   
    21   12   21 1   
    22   12   22 1   
    23   12   23 1   
    24   13   24 1   
    25   13   25 1   
    26   13   26 1   
    27   15   27 1   
    28   15   28 1   
    29   15   29 1   
    30   16   30 1   
    31   16   31 1   
    32   16   32 1   
    33   17   33 1   
    34   17   34 1   
    35   17   35 1   
@<TRIPOS>SUBSTRUCTURE
     1 MOL         1 TEMP              0 ****  ****    0 ROOT
