@<TRIPOS>MOLECULE
trifluoromethylbenzene
   15    15     1     0     0
SMALL
No Charge or Current Charge


@<TRIPOS>ATOM
      1 C1          1.8850   -1.0360   -0.1120 ca        1 MOL     -0.100900
      2 C2          2.9210   -1.6310    0.6080 ca        1 MOL     -0.134100
      3 C3          2.8780   -1.6520    2.0020 ca        1 MOL     -0.081500
      4 C4          1.8000   -1.0790    2.6760 ca        1 MOL     -0.167700
      5 C5          0.7640   -0.4840    1.9550 ca        1 MOL     -0.081500
      6 C6          0.8070   -0.4630    0.5610 ca        1 MOL     -0.134100
      7 C7          1.7550   -1.1010    4.1660 c3        1 MOL      0.686000
      8 F1          2.8340   -1.7140    4.7370 f         1 MOL     -0.237500
      9 F2          1.7120    0.1420    4.7310 f         1 MOL     -0.237500
     10 F3          0.6610   -1.7610    4.6490 f         1 MOL     -0.237500
     11 H1          1.9180   -1.0210   -1.1980 ha        1 MOL      0.139200
     12 H2          3.7600   -2.0780    0.0840 ha        1 MOL      0.142200
     13 H3          3.6900   -2.1170    2.5550 ha        1 MOL      0.151400
     14 H4         -0.0800   -0.0350    2.4710 ha        1 MOL      0.151400
     15 H5         -0.0010   -0.0010    0.0000 ha        1 MOL      0.142200
@<TRIPOS>BOND
     1    1    6 ar  
     2    1    2 ar  
     3    2    3 ar  
     4    3    4 ar  
     5    4    5 ar  
     6    5    6 ar  
     7    4    7 1   
     8    7    8 1   
     9    7    9 1   
    10    7   10 1   
    11    1   11 1   
    12    2   12 1   
    13    3   13 1   
    14    5   14 1   
    15    6   15 1   
@<TRIPOS>SUBSTRUCTURE
     1 MOL         1 TEMP              0 ****  ****    0 ROOT
