@<TRIPOS>MOLECULE
cycloheptanol
   22    22     1     0     0
SMALL
No Charge or Current Charge


@<TRIPOS>ATOM
      1 C1          0.8260   -0.2290    0.6860 c3        1 MOL     -0.074000
      2 C2          0.7740   -1.7240    0.9850 c3        1 MOL     -0.074000
      3 C3          1.4770   -2.2080    2.2490 c3        1 MOL     -0.069200
      4 C4          2.8090   -1.5310    2.5510 c3        1 MOL     -0.091000
      5 C5          2.6560   -0.2350    3.3470 c3        1 MOL      0.145300
      6 C6          2.0670    0.9400    2.5670 c3        1 MOL     -0.091000
      7 C7          0.7160    0.6800    1.9060 c3        1 MOL     -0.069200
      8 O1          3.9580    0.1440    3.8020 oh        1 MOL     -0.605700
      9 H1         -0.0000    0.0000    0.0000 hc        1 MOL      0.037400
     10 H2          1.7430    0.0010    0.1300 hc        1 MOL      0.037400
     11 H3         -0.2760   -2.0390    1.0440 hc        1 MOL      0.037400
     12 H4          1.1910   -2.2560    0.1200 hc        1 MOL      0.037400
     13 H5          0.8030   -2.1020    3.1080 hc        1 MOL      0.039400
     14 H6          1.6480   -3.2870    2.1400 hc        1 MOL      0.039400
     15 H7          3.4150   -2.2230    3.1520 hc        1 MOL      0.049000
     16 H8          3.3900   -1.3630    1.6350 hc        1 MOL      0.049000
     17 H9          2.0490   -0.4250    4.2400 h1        1 MOL      0.028600
     18 H10         1.9590    1.7860    3.2590 hc        1 MOL      0.049000
     19 H11         2.7920    1.2840    1.8170 hc        1 MOL      0.049000
     20 H12        -0.0090    0.2920    2.6290 hc        1 MOL      0.039400
     21 H13         0.3290    1.6490    1.5650 hc        1 MOL      0.039400
     22 H14         3.8420    0.9640    4.3020 ho        1 MOL      0.396800
@<TRIPOS>BOND
     1    1    7 1   
     2    1    2 1   
     3    2    3 1   
     4    3    4 1   
     5    4    5 1   
     6    5    6 1   
     7    6    7 1   
     8    5    8 1   
     9    1    9 1   
    10    1   10 1   
    11    2   11 1   
    12    2   12 1   
    13    3   13 1   
    14    3   14 1   
    15    4   15 1   
    16    4   16 1   
    17    5   17 1   
    18    6   18 1   
    19    6   19 1   
    20    7   20 1   
    21    7   21 1   
    22    8   22 1   
@<TRIPOS>SUBSTRUCTURE
     1 MOL         1 TEMP              0 ****  ****    0 ROOT
