@<TRIPOS>MOLECULE
2,6-dichlorobenzonitrile
   13    13     1     0     0
SMALL
No Charge or Current Charge


@<TRIPOS>ATOM
      1 C1          1.8850   -1.0360   -0.1120 ca        1 MOL     -0.091900
      2 C2          2.9210   -1.6310    0.6080 ca        1 MOL     -0.132000
      3 C3          2.8780   -1.6520    2.0020 ca        1 MOL      0.054900
      4 C4          1.8000   -1.0790    2.6760 ca        1 MOL     -0.004400
      5 C5          0.7640   -0.4840    1.9550 ca        1 MOL      0.054900
      6 C6          0.8070   -0.4630    0.5610 ca        1 MOL     -0.132000
      7 Cl1        -0.6020    0.2440    2.7310 cl        1 MOL     -0.056400
      8 C7          1.7560   -1.0990    4.1110 cg        1 MOL      0.231800
      9 N1          1.7220   -1.1160    5.2650 n1        1 MOL     -0.332600
     10 Cl2         4.1940   -2.4050    2.8380 cl        1 MOL     -0.056400
     11 H1          1.9180   -1.0200   -1.1980 ha        1 MOL      0.149200
     12 H2          3.7540   -2.0720    0.0670 ha        1 MOL      0.157500
     13 H3          0.0080   -0.0040   -0.0170 ha        1 MOL      0.157500
@<TRIPOS>BOND
     1    1    6 ar  
     2    1    2 ar  
     3    2    3 ar  
     4    3    4 ar  
     5    4    5 ar  
     6    5    6 ar  
     7    5    7 1   
     8    4    8 1   
     9    8    9 3   
    10    3   10 1   
    11    1   11 1   
    12    2   12 1   
    13    6   13 1   
@<TRIPOS>SUBSTRUCTURE
     1 MOL         1 TEMP              0 ****  ****    0 ROOT
