@<TRIPOS>MOLECULE
N,N-dimethylformamide
   12    11     1     0     0
SMALL
No Charge or Current Charge


@<TRIPOS>ATOM
      1 C1          0.9690   -0.0550   -0.5590 c3        1 MOL      0.082700
      2 N1          1.5480   -1.3610   -0.2930 n         1 MOL     -0.497600
      3 C2          0.7830   -2.5560   -0.6070 c3        1 MOL      0.082700
      4 C3          2.8170   -1.4420    0.2540 c         1 MOL      0.657900
      5 O1          3.5580   -0.5150    0.5610 o         1 MOL     -0.601600
      6 H1          0.4130    0.2950    0.3150 h1        1 MOL      0.041400
      7 H2          0.2860   -0.1110   -1.4110 h1        1 MOL      0.041400
      8 H3          1.7560    0.6680   -0.7880 h1        1 MOL      0.041400
      9 H4          1.0000   -2.8640   -1.6280 h1        1 MOL      0.041400
     10 H5         -0.2790   -2.3430   -0.5090 h1        1 MOL      0.041400
     11 H6          1.0590   -3.3530    0.0800 h1        1 MOL      0.041400
     12 H7          3.1360   -2.4870    0.4040 h5        1 MOL      0.027300
@<TRIPOS>BOND
     1    1    2 1   
     2    2    3 1   
     3    2    4 1   
     4    4    5 2   
     5    1    6 1   
     6    1    7 1   
     7    1    8 1   
     8    3    9 1   
     9    3   10 1   
    10    3   11 1   
    11    4   12 1   
@<TRIPOS>SUBSTRUCTURE
     1 MOL         1 TEMP              0 ****  ****    0 ROOT
