@<TRIPOS>MOLECULE
nitromethane
    7     6     1     0     0
SMALL
No Charge or Current Charge


@<TRIPOS>ATOM
      1 C1         -0.5250   -0.7550    0.5870 c3        1 MOL     -0.102700
      2 N1         -1.8330   -0.9730   -0.0160 no        1 MOL      0.234200
      3 O1         -2.4130   -2.0590    0.2080 o         1 MOL     -0.209100
      4 O2         -2.3090   -0.0740   -0.7440 o         1 MOL     -0.209100
      5 H1          0.2340   -1.1190   -0.1070 h1        1 MOL      0.095600
      6 H2         -0.4860   -1.3090    1.5270 h1        1 MOL      0.095600
      7 H3         -0.4050    0.3150    0.7650 h1        1 MOL      0.095600
@<TRIPOS>BOND
     1    1    2 1   
     2    2    3 1   
     3    2    4 1   
     4    1    5 1   
     5    1    6 1   
     6    1    7 1   
@<TRIPOS>SUBSTRUCTURE
     1 MOL         1 TEMP              0 ****  ****    0 ROOT
