@<TRIPOS>MOLECULE
methylsulfinylmethane
   10     9     1     0     0
SMALL
No Charge or Current Charge


@<TRIPOS>ATOM
      1 C1          0.8450   -0.5680    0.4100 c3        1 MOL     -0.130500
      2 S1          0.8620   -0.5490    2.2960 s4        1 MOL      0.271000
      3 O1          2.1870   -1.1420    2.6710 o         1 MOL     -0.507100
      4 C2          1.0230    1.2500    2.4100 c3        1 MOL     -0.130500
      5 H1         -0.0980   -0.1470    0.0540 h1        1 MOL      0.082900
      6 H2          0.9450   -1.5990    0.0640 h1        1 MOL      0.082900
      7 H3          1.6810    0.0300    0.0410 h1        1 MOL      0.082900
      8 H4          1.0570    1.5390    3.4620 h1        1 MOL      0.082900
      9 H5          0.1630    1.7120    1.9230 h1        1 MOL      0.082900
     10 H6          1.9430    1.5540    1.9090 h1        1 MOL      0.082900
@<TRIPOS>BOND
     1    1    2 1   
     2    2    3 2   
     3    2    4 1   
     4    1    5 1   
     5    1    6 1   
     6    1    7 1   
     7    4    8 1   
     8    4    9 1   
     9    4   10 1   
@<TRIPOS>SUBSTRUCTURE
     1 MOL         1 TEMP              0 ****  ****    0 ROOT
