@<TRIPOS>MOLECULE
3-phenylpropan-1-ol
   22    22     1     0     0
SMALL
No Charge or Current Charge


@<TRIPOS>ATOM
      1 C1          1.8850   -1.0360   -0.1120 ca        1 MOL     -0.131500
      2 C2          2.9210   -1.6310    0.6080 ca        1 MOL     -0.128200
      3 C3          2.8780   -1.6520    2.0020 ca        1 MOL     -0.126200
      4 C4          1.8000   -1.0790    2.6760 ca        1 MOL     -0.078300
      5 C5          0.7640   -0.4840    1.9550 ca        1 MOL     -0.126200
      6 C6          0.8070   -0.4630    0.5610 ca        1 MOL     -0.128200
      7 C7          1.7550   -1.1010    4.1660 c3        1 MOL     -0.035100
      8 C8          1.0510   -2.3550    4.7040 c3        1 MOL     -0.081600
      9 C9          1.0040   -2.3800    6.2250 c3        1 MOL      0.131800
     10 O1          0.3410   -3.5640    6.6450 oh        1 MOL     -0.601200
     11 H1          1.9180   -1.0210   -1.1980 ha        1 MOL      0.130300
     12 H2          3.7600   -2.0780    0.0840 ha        1 MOL      0.130900
     13 H3          3.6900   -2.1170    2.5550 ha        1 MOL      0.130500
     14 H4         -0.0800   -0.0350    2.4710 ha        1 MOL      0.130500
     15 H5         -0.0010   -0.0010    0.0000 ha        1 MOL      0.130900
     16 H6          1.2390   -0.2050    4.5520 hc        1 MOL      0.046400
     17 H7          2.7750   -1.0540    4.5850 hc        1 MOL      0.046400
     18 H8          1.5560   -3.2600    4.3420 hc        1 MOL      0.060000
     19 H9          0.0280   -2.4150    4.3080 hc        1 MOL      0.060000
     20 H10         2.0140   -2.3780    6.6470 h1        1 MOL      0.020100
     21 H11         0.4540   -1.5160    6.6130 h1        1 MOL      0.020100
     22 H12         0.3280   -3.5490    7.6160 ho        1 MOL      0.398600
@<TRIPOS>BOND
     1    1    6 ar  
     2    1    2 ar  
     3    2    3 ar  
     4    3    4 ar  
     5    4    5 ar  
     6    5    6 ar  
     7    4    7 1   
     8    7    8 1   
     9    8    9 1   
    10    9   10 1   
    11    1   11 1   
    12    2   12 1   
    13    3   13 1   
    14    5   14 1   
    15    6   15 1   
    16    7   16 1   
    17    7   17 1   
    18    8   18 1   
    19    8   19 1   
    20    9   20 1   
    21    9   21 1   
    22   10   22 1   
@<TRIPOS>SUBSTRUCTURE
     1 MOL         1 TEMP              0 ****  ****    0 ROOT
