@<TRIPOS>MOLECULE
propyl
   20    19     1     0     0
SMALL
No Charge or Current Charge


@<TRIPOS>ATOM
      1 C1         -4.5360    3.9850    4.4140 c3        1 MOL     -0.089700
      2 C2         -3.4080    3.2180    3.7490 c3        1 MOL     -0.107700
      3 C3         -3.0830    1.9310    4.4930 c3        1 MOL      0.148900
      4 O1         -2.0160    1.2610    3.8140 os        1 MOL     -0.465900
      5 C4         -1.6140    0.0810    4.3720 c         1 MOL      0.644200
      6 O2         -2.0820   -0.4340    5.3780 o         1 MOL     -0.510300
      7 C5         -0.4900   -0.4940    3.5420 c3        1 MOL     -0.139100
      8 C6          0.0160   -1.8130    4.0990 c3        1 MOL     -0.095200
      9 H1         -4.7580    4.9080    3.8690 hc        1 MOL      0.036300
     10 H2         -5.4470    3.3770    4.4380 hc        1 MOL      0.036300
     11 H3         -4.2780    4.2490    5.4450 hc        1 MOL      0.036300
     12 H4         -2.5110    3.8470    3.6950 hc        1 MOL      0.059000
     13 H5         -3.6760    2.9860    2.7120 hc        1 MOL      0.059000
     14 H6         -2.7660    2.1420    5.5190 h1        1 MOL      0.045500
     15 H7         -3.9520    1.2650    4.5180 h1        1 MOL      0.045500
     16 H8         -0.8560   -0.6480    2.5220 hc        1 MOL      0.079500
     17 H9          0.3320    0.2300    3.5230 hc        1 MOL      0.079500
     18 H10         0.8290   -2.2140    3.4860 hc        1 MOL      0.046000
     19 H11         0.3900   -1.6780    5.1190 hc        1 MOL      0.046000
     20 H12        -0.7840   -2.5610    4.1250 hc        1 MOL      0.046000
@<TRIPOS>BOND
     1    1    2 1   
     2    2    3 1   
     3    3    4 1   
     4    4    5 1   
     5    5    6 2   
     6    5    7 1   
     7    7    8 1   
     8    1    9 1   
     9    1   10 1   
    10    1   11 1   
    11    2   12 1   
    12    2   13 1   
    13    3   14 1   
    14    3   15 1   
    15    7   16 1   
    16    7   17 1   
    17    8   18 1   
    18    8   19 1   
    19    8   20 1   
@<TRIPOS>SUBSTRUCTURE
     1 MOL         1 TEMP              0 ****  ****    0 ROOT
