@<TRIPOS>MOLECULE
methyl
   22    22     1     0     0
SMALL
No Charge or Current Charge


@<TRIPOS>ATOM
      1 C1          0.8350   -0.3920   -2.1380 c3        1 MOL      0.107800
      2 O1          1.9270   -1.0160   -1.4730 os        1 MOL     -0.318000
      3 C2          1.8850   -1.0360   -0.1120 ca        1 MOL      0.156400
      4 C3          2.9210   -1.6310    0.6080 ca        1 MOL     -0.201400
      5 C4          2.8780   -1.6520    2.0020 ca        1 MOL     -0.036800
      6 C5          1.8000   -1.0790    2.6760 ca        1 MOL     -0.173600
      7 C6          0.7640   -0.4840    1.9550 ca        1 MOL     -0.036800
      8 C7          0.8070   -0.4630    0.5610 ca        1 MOL     -0.201400
      9 C8          1.7560   -1.0990    4.1290 c         1 MOL      0.651800
     10 O2          2.6300   -1.6020    4.8490 o         1 MOL     -0.543200
     11 O3          0.6280   -0.4910    4.6080 os        1 MOL     -0.448100
     12 C9          0.4710   -0.4460    6.0300 c3        1 MOL      0.129600
     13 H1          0.9890   -0.4420   -3.2190 h1        1 MOL      0.049000
     14 H2          0.7590    0.6500   -1.8180 h1        1 MOL      0.049000
     15 H3         -0.0870   -0.9190   -1.8790 h1        1 MOL      0.049000
     16 H4          3.7640   -2.0790    0.0890 ha        1 MOL      0.150400
     17 H5          3.6920   -2.1180    2.5530 ha        1 MOL      0.157900
     18 H6         -0.0810   -0.0340    2.4700 ha        1 MOL      0.157900
     19 H7         -0.0030    0.0020    0.0050 ha        1 MOL      0.150400
     20 H8         -0.4620    0.0620    6.2620 h1        1 MOL      0.050000
     21 H9          1.3180    0.0850    6.4580 h1        1 MOL      0.050000
     22 H10         0.4430   -1.4680    6.4010 h1        1 MOL      0.050000
@<TRIPOS>BOND
     1    1    2 1   
     2    2    3 1   
     3    3    8 ar  
     4    3    4 ar  
     5    4    5 ar  
     6    5    6 ar  
     7    6    7 ar  
     8    7    8 ar  
     9    6    9 1   
    10    9   10 2   
    11    9   11 1   
    12   11   12 1   
    13    1   13 1   
    14    1   14 1   
    15    1   15 1   
    16    4   16 1   
    17    5   17 1   
    18    7   18 1   
    19    8   19 1   
    20   12   20 1   
    21   12   21 1   
    22   12   22 1   
@<TRIPOS>SUBSTRUCTURE
     1 MOL         1 TEMP              0 ****  ****    0 ROOT
