@<TRIPOS>MOLECULE
1,1-dichloroethylene
    6     5     1     0     0
SMALL
No Charge or Current Charge


@<TRIPOS>ATOM
      1 C1         -0.9590    0.0620   -0.5380 c2        1 MOL     -0.206700
      2 C2         -1.7400   -1.0200   -0.7610 c2        1 MOL      0.075600
      3 Cl1        -1.2830   -2.5970   -0.2100 cl        1 MOL     -0.076600
      4 Cl2        -3.2440   -0.8920   -1.6120 cl        1 MOL     -0.076600
      5 H1         -1.2340    1.0720   -0.8820 ha        1 MOL      0.142200
      6 H2          0.0000    0.0000    0.0000 ha        1 MOL      0.142200
@<TRIPOS>BOND
     1    1    2 2   
     2    2    3 1   
     3    2    4 1   
     4    1    5 1   
     5    1    6 1   
@<TRIPOS>SUBSTRUCTURE
     1 MOL         1 TEMP              0 ****  ****    0 ROOT
