@<TRIPOS>MOLECULE
1-naphthyl
   26    27     1     0     0
SMALL
No Charge or Current Charge


@<TRIPOS>ATOM
      1 C1         -3.4590   -6.6150   -0.2280 c3        1 MOL      0.093800
      2 N1         -2.5250   -5.8300    0.5440 n         1 MOL     -0.560500
      3 C2         -1.6850   -4.8840   -0.0080 c         1 MOL      0.742200
      4 O1         -1.6240   -4.5900   -1.1980 o         1 MOL     -0.559400
      5 O2         -0.9140   -4.3080    0.9990 os        1 MOL     -0.381200
      6 C3         -0.0480   -3.3540    0.5450 ca        1 MOL      0.127900
      7 C4         -0.4970   -2.0340    0.4940 ca        1 MOL     -0.121100
      8 C5          0.3500   -1.0280    0.0390 ca        1 MOL     -0.119900
      9 C6          1.6480   -1.3370   -0.3660 ca        1 MOL     -0.115100
     10 C7          2.1170   -2.6600   -0.3220 ca        1 MOL     -0.030100
     11 C8          1.2560   -3.6840    0.1400 ca        1 MOL     -0.032600
     12 C9          1.7240   -5.0070    0.1850 ca        1 MOL     -0.105700
     13 C10         3.0230   -5.3170   -0.2210 ca        1 MOL     -0.125600
     14 C11         3.8690   -4.3100   -0.6760 ca        1 MOL     -0.123600
     15 C12         3.4210   -2.9900   -0.7270 ca        1 MOL     -0.118500
     16 H1         -2.9840   -7.5390   -0.5680 h1        1 MOL      0.047000
     17 H2         -3.7960   -6.0510   -1.1020 h1        1 MOL      0.047000
     18 H3         -4.3310   -6.8710    0.3800 h1        1 MOL      0.047000
     19 H4         -2.4980   -5.9670    1.5490 hn        1 MOL      0.331800
     20 H5         -1.5060   -1.7850    0.8080 ha        1 MOL      0.147000
     21 H6          0.0000    0.0000    0.0000 ha        1 MOL      0.136900
     22 H7          2.2930   -0.5340   -0.7190 ha        1 MOL      0.135200
     23 H8          1.0890   -5.8180    0.5340 ha        1 MOL      0.138400
     24 H9          3.3730   -6.3440   -0.1820 ha        1 MOL      0.133900
     25 H10         4.8800   -4.5520   -0.9920 ha        1 MOL      0.132700
     26 H11         4.0990   -2.2190   -1.0860 ha        1 MOL      0.132800
@<TRIPOS>BOND
     1    1    2 1   
     2    2    3 1   
     3    3    4 2   
     4    3    5 1   
     5    5    6 1   
     6    6   11 ar  
     7    6    7 ar  
     8    7    8 ar  
     9    8    9 ar  
    10    9   10 ar  
    11   10   15 ar  
    12   10   11 ar  
    13   11   12 ar  
    14   12   13 ar  
    15   13   14 ar  
    16   14   15 ar  
    17    1   16 1   
    18    1   17 1   
    19    1   18 1   
    20    2   19 1   
    21    7   20 1   
    22    8   21 1   
    23    9   22 1   
    24   12   23 1   
    25   13   24 1   
    26   14   25 1   
    27   15   26 1   
@<TRIPOS>SUBSTRUCTURE
     1 MOL         1 TEMP              0 ****  ****    0 ROOT
