@<TRIPOS>MOLECULE
2,2-dimethylpentane
   23    22     1     0     0
SMALL
No Charge or Current Charge


@<TRIPOS>ATOM
      1 C1         -2.9140   -1.4060    0.0150 c3        1 MOL     -0.092500
      2 C2         -1.4070   -1.5540    0.1740 c3        1 MOL     -0.080000
      3 C3         -0.7210   -0.1850    0.2520 c3        1 MOL     -0.069200
      4 C4          0.8220   -0.2120    0.4140 c3        1 MOL     -0.055500
      5 C5          1.4940   -0.9340   -0.7650 c3        1 MOL     -0.085500
      6 C6          1.3940    1.2100    0.5310 c3        1 MOL     -0.085500
      7 C7          1.1540   -0.9800    1.7100 c3        1 MOL     -0.085500
      8 H1         -3.4010   -2.3850   -0.0400 hc        1 MOL      0.031900
      9 H2         -3.3330   -0.8660    0.8700 hc        1 MOL      0.031900
     10 H3         -3.1600   -0.8470   -0.8930 hc        1 MOL      0.031900
     11 H4         -1.2080   -2.1340    1.0810 hc        1 MOL      0.039500
     12 H5         -1.0230   -2.1280   -0.6750 hc        1 MOL      0.039500
     13 H6         -1.1570    0.3750    1.0900 hc        1 MOL      0.038200
     14 H7         -0.9730    0.3810   -0.6550 hc        1 MOL      0.038200
     15 H8          2.5830   -0.9520   -0.6490 hc        1 MOL      0.033600
     16 H9          1.1470   -1.9680   -0.8600 hc        1 MOL      0.033600
     17 H10         1.2700   -0.4310   -1.7130 hc        1 MOL      0.033600
     18 H11         2.4840    1.1880    0.6450 hc        1 MOL      0.033600
     19 H12         0.9800    1.7320    1.4000 hc        1 MOL      0.033600
     20 H13         1.1770    1.8090   -0.3590 hc        1 MOL      0.033600
     21 H14         2.2370   -1.0290    1.8740 hc        1 MOL      0.033600
     22 H15         0.7080   -0.4950    2.5850 hc        1 MOL      0.033600
     23 H16         0.7750   -2.0070    1.6690 hc        1 MOL      0.033600
@<TRIPOS>BOND
     1    1    2 1   
     2    2    3 1   
     3    3    4 1   
     4    4    5 1   
     5    4    6 1   
     6    4    7 1   
     7    1    8 1   
     8    1    9 1   
     9    1   10 1   
    10    2   11 1   
    11    2   12 1   
    12    3   13 1   
    13    3   14 1   
    14    5   15 1   
    15    5   16 1   
    16    5   17 1   
    17    6   18 1   
    18    6   19 1   
    19    6   20 1   
    20    7   21 1   
    21    7   22 1   
    22    7   23 1   
@<TRIPOS>SUBSTRUCTURE
     1 MOL         1 TEMP              0 ****  ****    0 ROOT
