@<TRIPOS>MOLECULE
2,2-dimethylbutane
   20    19     1     0     0
SMALL
No Charge or Current Charge


@<TRIPOS>ATOM
      1 C1         -0.7780    2.0420   -1.2640 c3        1 MOL     -0.092100
      2 C2          0.6590    1.9010   -0.7750 c3        1 MOL     -0.070500
      3 C3          1.7370    2.6050   -1.6380 c3        1 MOL     -0.055700
      4 C4          1.4190    4.1120   -1.6700 c3        1 MOL     -0.085600
      5 C5          1.7280    2.0730   -3.0800 c3        1 MOL     -0.085600
      6 C6          3.1400    2.4150   -1.0370 c3        1 MOL     -0.085600
      7 H1         -1.4810    1.5210   -0.6080 hc        1 MOL      0.033000
      8 H2         -1.0620    3.0990   -1.2750 hc        1 MOL      0.033000
      9 H3         -0.8980    1.6590   -2.2810 hc        1 MOL      0.033000
     10 H4          0.8910    0.8300   -0.7080 hc        1 MOL      0.037400
     11 H5          0.7070    2.2880    0.2520 hc        1 MOL      0.037400
     12 H6          2.1550    4.6600   -2.2700 hc        1 MOL      0.033500
     13 H7          1.4250    4.5400   -0.6610 hc        1 MOL      0.033500
     14 H8          0.4310    4.3010   -2.1040 hc        1 MOL      0.033500
     15 H9          2.4870    2.5630   -3.6990 hc        1 MOL      0.033500
     16 H10         1.9190    0.9940   -3.1050 hc        1 MOL      0.033500
     17 H11         0.7580    2.2490   -3.5590 hc        1 MOL      0.033500
     18 H12         3.9020    2.9130   -1.6470 hc        1 MOL      0.033500
     19 H13         3.4030    1.3520   -0.9790 hc        1 MOL      0.033500
     20 H14         3.2050    2.8190   -0.0210 hc        1 MOL      0.033500
@<TRIPOS>BOND
     1    1    2 1   
     2    2    3 1   
     3    3    4 1   
     4    3    5 1   
     5    3    6 1   
     6    1    7 1   
     7    1    8 1   
     8    1    9 1   
     9    2   10 1   
    10    2   11 1   
    11    4   12 1   
    12    4   13 1   
    13    4   14 1   
    14    5   15 1   
    15    5   16 1   
    16    5   17 1   
    17    6   18 1   
    18    6   19 1   
    19    6   20 1   
@<TRIPOS>SUBSTRUCTURE
     1 MOL         1 TEMP              0 ****  ****    0 ROOT
