@<TRIPOS>MOLECULE
piperazine
   16    16     1     0     0
SMALL
No Charge or Current Charge


@<TRIPOS>ATOM
      1 C1         -0.8450   -1.0560   -0.4430 c3        1 MOL      0.159400
      2 C2         -0.8420    0.3210   -1.1070 c3        1 MOL      0.159400
      3 N1         -0.4510    1.3640   -0.1580 n3        1 MOL     -0.817400
      4 C3          0.8460    1.0590    0.4460 c3        1 MOL      0.159400
      5 C4          0.8380   -0.3200    1.1050 c3        1 MOL      0.159400
      6 N2          0.4540   -1.3700    0.1580 n3        1 MOL     -0.817400
      7 H1         -1.0850   -1.8210   -1.1900 h1        1 MOL      0.034300
      8 H2         -1.6280   -1.1090    0.3240 h1        1 MOL      0.034300
      9 H3         -0.1640    0.3270   -1.9700 h1        1 MOL      0.034300
     10 H4         -1.8460    0.5430   -1.4840 h1        1 MOL      0.034300
     11 H5         -0.4000    2.2610   -0.6400 hn        1 MOL      0.361400
     12 H6          1.6350    1.1140   -0.3150 h1        1 MOL      0.034300
     13 H7          1.0730    1.8200    1.2000 h1        1 MOL      0.034300
     14 H8          1.8360   -0.5430    1.4970 h1        1 MOL      0.034300
     15 H9          0.1540   -0.3300    1.9630 h1        1 MOL      0.034300
     16 H10         0.3750   -2.2520    0.6630 hn        1 MOL      0.361400
@<TRIPOS>BOND
     1    1    6 1   
     2    1    2 1   
     3    2    3 1   
     4    3    4 1   
     5    4    5 1   
     6    5    6 1   
     7    1    7 1   
     8    1    8 1   
     9    2    9 1   
    10    2   10 1   
    11    3   11 1   
    12    4   12 1   
    13    4   13 1   
    14    5   14 1   
    15    5   15 1   
    16    6   16 1   
@<TRIPOS>SUBSTRUCTURE
     1 MOL         1 TEMP              0 ****  ****    0 ROOT
