@<TRIPOS>MOLECULE
tert-butylbenzene
   24    24     1     0     0
SMALL
No Charge or Current Charge


@<TRIPOS>ATOM
      1 C1         -1.0060    0.0250   -0.4340 c3        1 MOL     -0.085700
      2 C2         -2.0900    0.3300    0.6220 c3        1 MOL     -0.009700
      3 C3         -1.7780    1.6830    1.2950 c3        1 MOL     -0.085700
      4 C4         -3.4290    0.4950   -0.1340 c3        1 MOL     -0.085700
      5 C5         -2.1080   -0.7840    1.6810 ca        1 MOL     -0.063000
      6 C6         -3.2650   -1.5360    1.8840 ca        1 MOL     -0.128200
      7 C7         -3.2810   -2.5460    2.8460 ca        1 MOL     -0.130500
      8 C8         -2.1400   -2.8050    3.6040 ca        1 MOL     -0.133700
      9 C9         -0.9820   -2.0530    3.4020 ca        1 MOL     -0.130500
     10 C10        -0.9660   -1.0430    2.4400 ca        1 MOL     -0.128200
     11 H1         -1.1970   -0.9310   -0.9330 hc        1 MOL      0.036700
     12 H2         -0.9620    0.7910   -1.2160 hc        1 MOL      0.036700
     13 H3         -0.0120   -0.0320    0.0260 hc        1 MOL      0.036700
     14 H4         -2.5190    1.9490    2.0560 hc        1 MOL      0.036700
     15 H5         -0.8010    1.6610    1.7940 hc        1 MOL      0.036700
     16 H6         -1.7570    2.4950    0.5590 hc        1 MOL      0.036700
     17 H7         -4.2490    0.7150    0.5600 hc        1 MOL      0.036700
     18 H8         -3.3860    1.3210   -0.8540 hc        1 MOL      0.036700
     19 H9         -3.7010   -0.4180   -0.6760 hc        1 MOL      0.036700
     20 H10        -4.1590   -1.3410    1.2980 ha        1 MOL      0.130900
     21 H11        -4.1820   -3.1310    3.0030 ha        1 MOL      0.129400
     22 H12        -2.1520   -3.5920    4.3530 ha        1 MOL      0.130200
     23 H13        -0.0940   -2.2540    3.9930 ha        1 MOL      0.129400
     24 H14        -0.0600   -0.4630    2.2890 ha        1 MOL      0.130900
@<TRIPOS>BOND
     1    1    2 1   
     2    2    3 1   
     3    2    4 1   
     4    2    5 1   
     5    5   10 ar  
     6    5    6 ar  
     7    6    7 ar  
     8    7    8 ar  
     9    8    9 ar  
    10    9   10 ar  
    11    1   11 1   
    12    1   12 1   
    13    1   13 1   
    14    3   14 1   
    15    3   15 1   
    16    3   16 1   
    17    4   17 1   
    18    4   18 1   
    19    4   19 1   
    20    6   20 1   
    21    7   21 1   
    22    8   22 1   
    23    9   23 1   
    24   10   24 1   
@<TRIPOS>SUBSTRUCTURE
     1 MOL         1 TEMP              0 ****  ****    0 ROOT
