@<TRIPOS>MOLECULE
mesitylene
   21    21     1     0     0
SMALL
No Charge or Current Charge


@<TRIPOS>ATOM
      1 C1          1.9310   -1.0140   -1.6030 c3        1 MOL     -0.053300
      2 C2          1.8850   -1.0360   -0.1120 ca        1 MOL     -0.071000
      3 C3          2.9210   -1.6310    0.6080 ca        1 MOL     -0.135300
      4 C4          2.8780   -1.6520    2.0020 ca        1 MOL     -0.071000
      5 C5          1.8000   -1.0790    2.6760 ca        1 MOL     -0.135300
      6 C6          0.7640   -0.4840    1.9550 ca        1 MOL     -0.071000
      7 C7          0.8070   -0.4630    0.5610 ca        1 MOL     -0.135300
      8 C8         -0.3890    0.1290    2.6750 c3        1 MOL     -0.053100
      9 C9          3.9860   -2.2880    2.7730 c3        1 MOL     -0.053100
     10 H1          2.4390   -0.1080   -1.9480 hc        1 MOL      0.043300
     11 H2          2.4630   -1.8880   -1.9910 hc        1 MOL      0.043300
     12 H3          0.9210   -1.0360   -2.0250 hc        1 MOL      0.043300
     13 H4          3.7620   -2.0780    0.0830 ha        1 MOL      0.129700
     14 H5          1.7660   -1.0950    3.7630 ha        1 MOL      0.129700
     15 H6         -0.0010    0.0000   -0.0010 ha        1 MOL      0.129700
     16 H7         -0.1880    1.1860    2.8880 hc        1 MOL      0.043300
     17 H8         -1.3100    0.0630    2.0820 hc        1 MOL      0.043300
     18 H9         -0.5860   -0.3860    3.6240 hc        1 MOL      0.043300
     19 H10         4.7660   -1.5510    2.9990 hc        1 MOL      0.043300
     20 H11         3.6220   -2.7110    3.7180 hc        1 MOL      0.043300
     21 H12         4.4400   -3.1140    2.2090 hc        1 MOL      0.043300
@<TRIPOS>BOND
     1    1    2 1   
     2    2    7 ar  
     3    2    3 ar  
     4    3    4 ar  
     5    4    5 ar  
     6    5    6 ar  
     7    6    7 ar  
     8    6    8 1   
     9    4    9 1   
    10    1   10 1   
    11    1   11 1   
    12    1   12 1   
    13    3   13 1   
    14    5   14 1   
    15    7   15 1   
    16    8   16 1   
    17    8   17 1   
    18    8   18 1   
    19    9   19 1   
    20    9   20 1   
    21    9   21 1   
@<TRIPOS>SUBSTRUCTURE
     1 MOL         1 TEMP              0 ****  ****    0 ROOT
