@<TRIPOS>MOLECULE
1,3-dichloropropane
   11    10     1     0     0
SMALL
No Charge or Current Charge


@<TRIPOS>ATOM
      1 C1         -0.1600   -0.1130    0.6210 c3        1 MOL     -0.099000
      2 C2          0.9880    0.8170    0.2320 c3        1 MOL      0.034100
      3 Cl1         0.4350    2.1800   -0.7670 cl        1 MOL     -0.196300
      4 C3         -0.9080   -0.7600   -0.5410 c3        1 MOL      0.034100
      5 Cl2         0.1610   -1.7580   -1.5530 cl        1 MOL     -0.196300
      6 H1          0.2400   -0.9010    1.2720 hc        1 MOL      0.064100
      7 H2         -0.8810    0.4470    1.2290 hc        1 MOL      0.064100
      8 H3          1.4430    1.2410    1.1320 h1        1 MOL      0.073800
      9 H4          1.7710    0.2900   -0.3210 h1        1 MOL      0.073800
     10 H5         -1.3840   -0.0160   -1.1860 h1        1 MOL      0.073800
     11 H6         -1.6930   -1.4180   -0.1560 h1        1 MOL      0.073800
@<TRIPOS>BOND
     1    1    2 1   
     2    2    3 1   
     3    1    4 1   
     4    4    5 1   
     5    1    6 1   
     6    1    7 1   
     7    2    8 1   
     8    2    9 1   
     9    4   10 1   
    10    4   11 1   
@<TRIPOS>SUBSTRUCTURE
     1 MOL         1 TEMP              0 ****  ****    0 ROOT
