@<TRIPOS>MOLECULE
1,2,3,4-tetrachloro-5-(3,4,5-trichlorophenyl)benzene
   22    23     1     0     0
SMALL
No Charge or Current Charge


@<TRIPOS>ATOM
      1 C1          1.8850   -1.0360   -0.1120 ca        1 MOL     -0.096300
      2 C2          2.9210   -1.6310    0.6080 cp        1 MOL     -0.035300
      3 C3          2.8780   -1.6520    2.0020 ca        1 MOL     -0.096300
      4 C4          1.8000   -1.0790    2.6760 ca        1 MOL      0.021000
      5 C5          0.7640   -0.4840    1.9550 ca        1 MOL      0.023800
      6 C6          0.8070   -0.4630    0.5610 ca        1 MOL      0.021000
      7 Cl1        -0.4410    0.2560   -0.3990 cl        1 MOL     -0.055500
      8 Cl2        -0.5810    0.2290    2.7940 cl        1 MOL     -0.037700
      9 Cl3         1.8160   -1.1440    4.4050 cl        1 MOL     -0.055500
     10 C7          4.0400   -2.2260   -0.0910 cp        1 MOL     -0.028000
     11 C8          3.9450   -3.5740   -0.4390 ca        1 MOL     -0.097300
     12 C9          4.9950   -4.1950   -1.1130 ca        1 MOL      0.019800
     13 C10         6.1410   -3.4690   -1.4400 ca        1 MOL      0.027300
     14 C11         6.2350   -2.1220   -1.0930 ca        1 MOL      0.019000
     15 C12         5.1850   -1.5000   -0.4180 ca        1 MOL      0.035700
     16 Cl4         5.2840    0.1800    0.0300 cl        1 MOL     -0.040300
     17 Cl5         7.6650   -1.2140   -1.4990 cl        1 MOL     -0.034100
     18 Cl6         7.4440   -4.2590   -2.2830 cl        1 MOL     -0.032800
     19 Cl7         4.8020   -5.8690   -1.5130 cl        1 MOL     -0.048800
     20 H1          1.9220   -1.0200   -1.2000 ha        1 MOL      0.162200
     21 H2          3.6880   -2.1170    2.5620 ha        1 MOL      0.162200
     22 H3          3.0500   -4.1390   -0.1860 ha        1 MOL      0.166300
@<TRIPOS>BOND
     1    1    6 ar  
     2    1    2 ar  
     3    2    3 ar  
     4    3    4 ar  
     5    4    5 ar  
     6    5    6 ar  
     7    6    7 1   
     8    5    8 1   
     9    4    9 1   
    10    2   10 1   
    11   10   15 ar  
    12   10   11 ar  
    13   11   12 ar  
    14   12   13 ar  
    15   13   14 ar  
    16   14   15 ar  
    17   15   16 1   
    18   14   17 1   
    19   13   18 1   
    20   12   19 1   
    21    1   20 1   
    22    3   21 1   
    23   11   22 1   
@<TRIPOS>SUBSTRUCTURE
     1 MOL         1 TEMP              0 ****  ****    0 ROOT
