@<TRIPOS>MOLECULE
3-ethylpyridine
   17    17     1     0     0
SMALL
No Charge or Current Charge


@<TRIPOS>ATOM
      1 C1          2.6690    0.9360    4.5560 c3        1 MOL     -0.090200
      2 C2          2.8850   -0.2670    3.6510 c3        1 MOL     -0.034900
      3 C3          1.6520   -0.6230    2.9000 ca        1 MOL     -0.191900
      4 C4          1.3880   -0.0680    1.6520 ca        1 MOL     -0.093700
      5 C5          0.2270   -0.4200    0.9730 ca        1 MOL     -0.243700
      6 C6         -0.6320   -1.3220    1.5800 ca        1 MOL      0.388700
      7 N1         -0.4090   -1.8820    2.7910 nb        1 MOL     -0.663500
      8 C7          0.7300   -1.5160    3.4210 ca        1 MOL      0.395800
      9 H1          3.5820    1.1910    5.1040 hc        1 MOL      0.037800
     10 H2          1.8830    0.7230    5.2870 hc        1 MOL      0.037800
     11 H3          2.3660    1.8180    3.9800 hc        1 MOL      0.037800
     12 H4          3.2150   -1.1250    4.2480 hc        1 MOL      0.048600
     13 H5          3.7000   -0.0580    2.9460 hc        1 MOL      0.048600
     14 H6          2.0810    0.6370    1.2020 ha        1 MOL      0.137500
     15 H7         -0.0000   -0.0000   -0.0000 ha        1 MOL      0.142600
     16 H8         -1.5510   -1.6290    1.0920 h4        1 MOL      0.020800
     17 H9          0.8820   -1.9810    4.3900 h4        1 MOL      0.021800
@<TRIPOS>BOND
     1    1    2 1   
     2    2    3 1   
     3    3    8 ar  
     4    3    4 ar  
     5    4    5 ar  
     6    5    6 ar  
     7    6    7 ar  
     8    7    8 ar  
     9    1    9 1   
    10    1   10 1   
    11    1   11 1   
    12    2   12 1   
    13    2   13 1   
    14    4   14 1   
    15    5   15 1   
    16    6   16 1   
    17    8   17 1   
@<TRIPOS>SUBSTRUCTURE
     1 MOL         1 TEMP              0 ****  ****    0 ROOT
