@<TRIPOS>MOLECULE
1-bromopropane
   11    10     1     0     0
SMALL
No Charge or Current Charge


@<TRIPOS>ATOM
      1 C1         -0.8960    0.1360   -1.0000 c3        1 MOL     -0.095400
      2 C2         -0.3510    0.1890    0.4180 c3        1 MOL     -0.083100
      3 C3          1.0880   -0.2890    0.4720 c3        1 MOL     -0.007000
      4 Br1         1.7430   -0.2050    2.3030 br        1 MOL     -0.180700
      5 H1         -1.9340    0.4840   -1.0210 hc        1 MOL      0.037700
      6 H2         -0.3100    0.7750   -1.6690 hc        1 MOL      0.037700
      7 H3         -0.8720   -0.8860   -1.3920 hc        1 MOL      0.037700
      8 H4         -0.9820   -0.4310    1.0680 hc        1 MOL      0.054800
      9 H5         -0.4250    1.2170    0.7930 hc        1 MOL      0.054800
     10 H6          1.7520    0.3410   -0.1260 h1        1 MOL      0.071800
     11 H7          1.1870   -1.3300    0.1520 h1        1 MOL      0.071800
@<TRIPOS>BOND
     1    1    2 1   
     2    2    3 1   
     3    3    4 1   
     4    1    5 1   
     5    1    6 1   
     6    1    7 1   
     7    2    8 1   
     8    2    9 1   
     9    3   10 1   
    10    3   11 1   
@<TRIPOS>SUBSTRUCTURE
     1 MOL         1 TEMP              0 ****  ****    0 ROOT
