@<TRIPOS>MOLECULE
methyl
   23    22     1     0     0
SMALL
No Charge or Current Charge


@<TRIPOS>ATOM
      1 C1          0.0400    1.0640    0.1430 c3        1 MOL     -0.090000
      2 C2         -0.1600    1.4360    1.6040 c3        1 MOL     -0.082700
      3 C3          0.9240    0.8240    2.4920 c3        1 MOL     -0.080300
      4 C4          0.7150    1.2020    3.9620 c3        1 MOL     -0.072500
      5 C5          1.7850    0.6050    4.8760 c3        1 MOL     -0.126900
      6 C6          1.5950    0.9680    6.3320 c         1 MOL      0.631900
      7 O1          0.6920    1.6660    6.7720 o         1 MOL     -0.539900
      8 O2          2.6090    0.4180    7.0630 os        1 MOL     -0.442800
      9 C7          2.5830    0.7020    8.4650 c3        1 MOL      0.124600
     10 H1         -0.7400    1.5060   -0.4840 hc        1 MOL      0.032600
     11 H2          1.0120    1.4120   -0.2200 hc        1 MOL      0.032600
     12 H3          0.0010   -0.0230    0.0200 hc        1 MOL      0.032600
     13 H4         -1.1480    1.0890    1.9310 hc        1 MOL      0.042000
     14 H5         -0.1500    2.5270    1.7020 hc        1 MOL      0.042000
     15 H6          0.9130   -0.2660    2.3780 hc        1 MOL      0.045700
     16 H7          1.9090    1.1730    2.1600 hc        1 MOL      0.045700
     17 H8          0.7510    2.2950    4.0550 hc        1 MOL      0.051200
     18 H9         -0.2820    0.8870    4.2890 hc        1 MOL      0.051200
     19 H10         1.7880   -0.4870    4.7760 hc        1 MOL      0.076600
     20 H11         2.7680    0.9840    4.5740 hc        1 MOL      0.076600
     21 H12         3.4340    0.2140    8.9370 h1        1 MOL      0.049900
     22 H13         1.6470    0.3340    8.8800 h1        1 MOL      0.049900
     23 H14         2.6520    1.7790    8.5950 h1        1 MOL      0.049900
@<TRIPOS>BOND
     1    1    2 1   
     2    2    3 1   
     3    3    4 1   
     4    4    5 1   
     5    5    6 1   
     6    6    7 2   
     7    6    8 1   
     8    8    9 1   
     9    1   10 1   
    10    1   11 1   
    11    1   12 1   
    12    2   13 1   
    13    2   14 1   
    14    3   15 1   
    15    3   16 1   
    16    4   17 1   
    17    4   18 1   
    18    5   19 1   
    19    5   20 1   
    20    9   21 1   
    21    9   22 1   
    22    9   23 1   
@<TRIPOS>SUBSTRUCTURE
     1 MOL         1 TEMP              0 ****  ****    0 ROOT
