@<TRIPOS>MOLECULE
(1S,5R)-5-isopropenyl-2-methyl-cyclohex-2-en-1-ol
   27    27     1     0     0
SMALL
No Charge or Current Charge


@<TRIPOS>ATOM
      1 C1         -3.7290   -4.7830    2.2230 c3        1 MOL     -0.056700
      2 C2         -2.7240   -3.8100    1.6750 c2        1 MOL     -0.108900
      3 C3         -2.8630   -2.4850    1.8510 c2        1 MOL     -0.155600
      4 C4         -1.9050   -1.4630    1.3100 c3        1 MOL     -0.042500
      5 C5         -0.9330   -2.0300    0.2630 c3        1 MOL     -0.026400
      6 H1         -1.4750   -2.1660   -0.6830 hc        1 MOL      0.065800
      7 C6         -0.3990   -3.3940    0.7230 c3        1 MOL     -0.102600
      8 C7         -1.5410   -4.3970    0.9430 c3        1 MOL      0.180400
      9 H2         -1.1370   -5.2510    1.4990 h1        1 MOL      0.034200
     10 O1         -1.9670   -4.8760   -0.3330 oh        1 MOL     -0.593400
     11 C8          0.1870   -1.0690   -0.0010 c2        1 MOL     -0.108300
     12 C9          1.0230   -0.6700    0.9690 c2        1 MOL     -0.225900
     13 C10         0.3200   -0.5780   -1.4130 c3        1 MOL     -0.063600
     14 H3         -3.4600   -5.0730    3.2420 hc        1 MOL      0.044500
     15 H4         -3.7670   -5.6810    1.6000 hc        1 MOL      0.044500
     16 H5         -4.7250   -4.3320    2.2370 hc        1 MOL      0.044500
     17 H6         -3.7130   -2.1000    2.4080 ha        1 MOL      0.122800
     18 H7         -2.4810   -0.6450    0.8590 hc        1 MOL      0.052400
     19 H8         -1.3560   -1.0320    2.1580 hc        1 MOL      0.052400
     20 H9          0.3000   -3.7910   -0.0250 hc        1 MOL      0.047600
     21 H10         0.1610   -3.2710    1.6600 hc        1 MOL      0.047600
     22 H11        -1.1950   -5.2990   -0.7380 ho        1 MOL      0.396800
     23 H12         1.8310    0.0260    0.7660 ha        1 MOL      0.112500
     24 H13         0.9200   -1.0300    1.9870 ha        1 MOL      0.112500
     25 H14        -0.2710    0.3330   -1.5560 hc        1 MOL      0.041800
     26 H15         1.3670   -0.3520   -1.6390 hc        1 MOL      0.041800
     27 H16        -0.0270   -1.3180   -2.1420 hc        1 MOL      0.041800
@<TRIPOS>BOND
     1    1    2 1   
     2    2    8 1   
     3    2    3 2   
     4    3    4 1   
     5    4    5 1   
     6    5    6 1   
     7    5    7 1   
     8    7    8 1   
     9    8    9 1   
    10    8   10 1   
    11    5   11 1   
    12   11   12 2   
    13   11   13 1   
    14    1   14 1   
    15    1   15 1   
    16    1   16 1   
    17    3   17 1   
    18    4   18 1   
    19    4   19 1   
    20    7   20 1   
    21    7   21 1   
    22   10   22 1   
    23   12   23 1   
    24   12   24 1   
    25   13   25 1   
    26   13   26 1   
    27   13   27 1   
@<TRIPOS>SUBSTRUCTURE
     1 MOL         1 TEMP              0 ****  ****    0 ROOT
