@<TRIPOS>MOLECULE
4-tert-butylphenol
   25    25     1     0     0
SMALL
No Charge or Current Charge


@<TRIPOS>ATOM
      1 C1         -1.0060    0.0250   -0.4340 c3        1 MOL     -0.085900
      2 C2         -2.0900    0.3300    0.6220 c3        1 MOL     -0.005500
      3 C3         -1.7780    1.6830    1.2950 c3        1 MOL     -0.085900
      4 C4         -3.4290    0.4950   -0.1340 c3        1 MOL     -0.085900
      5 C5         -2.1080   -0.7840    1.6810 ca        1 MOL     -0.098200
      6 C6         -3.2650   -1.5350    1.8860 ca        1 MOL     -0.092700
      7 C7         -3.2810   -2.5440    2.8490 ca        1 MOL     -0.184700
      8 C8         -2.1390   -2.8020    3.6070 ca        1 MOL      0.120000
      9 C9         -0.9820   -2.0510    3.4030 ca        1 MOL     -0.184700
     10 C10        -0.9660   -1.0420    2.4400 ca        1 MOL     -0.092700
     11 O1         -2.1550   -3.7860    4.5470 oh        1 MOL     -0.499200
     12 H1         -1.1970   -0.9310   -0.9330 hc        1 MOL      0.036500
     13 H2         -0.9620    0.7910   -1.2160 hc        1 MOL      0.036500
     14 H3         -0.0120   -0.0320    0.0260 hc        1 MOL      0.036500
     15 H4         -2.5190    1.9490    2.0560 hc        1 MOL      0.036500
     16 H5         -0.8010    1.6610    1.7940 hc        1 MOL      0.036500
     17 H6         -1.7570    2.4950    0.5590 hc        1 MOL      0.036500
     18 H7         -4.2490    0.7150    0.5600 hc        1 MOL      0.036500
     19 H8         -3.3860    1.3210   -0.8540 hc        1 MOL      0.036500
     20 H9         -3.7010   -0.4180   -0.6760 hc        1 MOL      0.036500
     21 H10        -4.1590   -1.3410    1.2990 ha        1 MOL      0.134100
     22 H11        -4.1860   -3.1260    3.0030 ha        1 MOL      0.140100
     23 H12        -0.0890   -2.2480    3.9900 ha        1 MOL      0.140100
     24 H13        -0.0590   -0.4630    2.2870 ha        1 MOL      0.134100
     25 H14        -1.2920   -3.8440    4.9880 ho        1 MOL      0.418000
@<TRIPOS>BOND
     1    1    2 1   
     2    2    3 1   
     3    2    4 1   
     4    2    5 1   
     5    5   10 ar  
     6    5    6 ar  
     7    6    7 ar  
     8    7    8 ar  
     9    8    9 ar  
    10    9   10 ar  
    11    8   11 1   
    12    1   12 1   
    13    1   13 1   
    14    1   14 1   
    15    3   15 1   
    16    3   16 1   
    17    3   17 1   
    18    4   18 1   
    19    4   19 1   
    20    4   20 1   
    21    6   21 1   
    22    7   22 1   
    23    9   23 1   
    24   10   24 1   
    25   11   25 1   
@<TRIPOS>SUBSTRUCTURE
     1 MOL         1 TEMP              0 ****  ****    0 ROOT
