@<TRIPOS>MOLECULE
(2S)-1-butoxypropan-2-ol
   25    24     1     0     0
SMALL
No Charge or Current Charge


@<TRIPOS>ATOM
      1 C1          0.3900   -1.0210   -0.0850 c3        1 MOL     -0.093300
      2 C2         -0.5800   -2.0240    0.5200 c3        1 MOL     -0.077500
      3 C3         -1.9310   -1.9920   -0.1890 c3        1 MOL     -0.079900
      4 C4         -2.9050   -2.9950    0.4140 c3        1 MOL      0.131100
      5 O1         -4.1380   -2.9160   -0.2880 os        1 MOL     -0.427700
      6 C5         -5.0930   -3.8320    0.2300 c3        1 MOL      0.132100
      7 C6         -6.3890   -3.6990   -0.5610 c3        1 MOL      0.139900
      8 H1         -6.5920   -2.6440   -0.7770 h1        1 MOL      0.045200
      9 C7         -7.5610   -4.3270    0.1770 c3        1 MOL     -0.128500
     10 O2         -6.2200   -4.3670   -1.8110 oh        1 MOL     -0.606700
     11 H2          1.3560   -1.0500    0.4300 hc        1 MOL      0.031500
     12 H3          0.5590   -1.2300   -1.1460 hc        1 MOL      0.031500
     13 H4         -0.0110   -0.0060    0.0030 hc        1 MOL      0.031500
     14 H5         -0.1470   -3.0290    0.4520 hc        1 MOL      0.046700
     15 H6         -0.7120   -1.7990    1.5850 hc        1 MOL      0.046700
     16 H7         -2.3650   -0.9870   -0.1340 hc        1 MOL      0.047100
     17 H8         -1.8040   -2.2070   -1.2570 hc        1 MOL      0.047100
     18 H9         -2.5190   -4.0160    0.3260 h1        1 MOL      0.029600
     19 H10        -3.0900   -2.7730    1.4700 h1        1 MOL      0.029600
     20 H11        -5.2500   -3.5950    1.2880 h1        1 MOL      0.039900
     21 H12        -4.6810   -4.8430    0.1420 h1        1 MOL      0.039900
     22 H13        -8.4820   -4.2220   -0.4060 hc        1 MOL      0.046600
     23 H14        -7.3890   -5.3910    0.3650 hc        1 MOL      0.046600
     24 H15        -7.7370   -3.8240    1.1350 hc        1 MOL      0.046600
     25 H16        -5.4830   -3.9260   -2.2600 ho        1 MOL      0.404100
@<TRIPOS>BOND
     1    1    2 1   
     2    2    3 1   
     3    3    4 1   
     4    4    5 1   
     5    5    6 1   
     6    6    7 1   
     7    7    8 1   
     8    7    9 1   
     9    7   10 1   
    10    1   11 1   
    11    1   12 1   
    12    1   13 1   
    13    2   14 1   
    14    2   15 1   
    15    3   16 1   
    16    3   17 1   
    17    4   18 1   
    18    4   19 1   
    19    6   20 1   
    20    6   21 1   
    21    9   22 1   
    22    9   23 1   
    23    9   24 1   
    24   10   25 1   
@<TRIPOS>SUBSTRUCTURE
     1 MOL         1 TEMP              0 ****  ****    0 ROOT
