@<TRIPOS>MOLECULE
3,5-dimethylphenol
   19    19     1     0     0
SMALL
No Charge or Current Charge


@<TRIPOS>ATOM
      1 C1          1.9300   -1.0130   -1.6030 c3        1 MOL     -0.056300
      2 C2          1.8850   -1.0360   -0.1120 ca        1 MOL     -0.037700
      3 C3          2.9210   -1.6310    0.6080 ca        1 MOL     -0.167000
      4 C4          2.8780   -1.6520    2.0020 ca        1 MOL     -0.037700
      5 C5          1.8000   -1.0790    2.6760 ca        1 MOL     -0.191800
      6 C6          0.7640   -0.4840    1.9550 ca        1 MOL      0.130500
      7 C7          0.8070   -0.4630    0.5610 ca        1 MOL     -0.191800
      8 O1         -0.2880    0.0760    2.6130 oh        1 MOL     -0.500700
      9 C8          3.9860   -2.2870    2.7720 c3        1 MOL     -0.056300
     10 H1          2.4380   -0.1070   -1.9480 hc        1 MOL      0.046000
     11 H2          2.4630   -1.8870   -1.9920 hc        1 MOL      0.046000
     12 H3          0.9200   -1.0350   -2.0250 hc        1 MOL      0.046000
     13 H4          3.7620   -2.0780    0.0830 ha        1 MOL      0.133100
     14 H5          1.7630   -1.0930    3.7620 ha        1 MOL      0.140700
     15 H6         -0.0020    0.0020    0.0020 ha        1 MOL      0.140700
     16 H7         -0.9220    0.4460    1.9780 ho        1 MOL      0.418400
     17 H8          4.7660   -1.5500    2.9980 hc        1 MOL      0.046000
     18 H9          3.6230   -2.7100    3.7180 hc        1 MOL      0.046000
     19 H10         4.4410   -3.1130    2.2090 hc        1 MOL      0.046000
@<TRIPOS>BOND
     1    1    2 1   
     2    2    7 ar  
     3    2    3 ar  
     4    3    4 ar  
     5    4    5 ar  
     6    5    6 ar  
     7    6    7 ar  
     8    6    8 1   
     9    4    9 1   
    10    1   10 1   
    11    1   11 1   
    12    1   12 1   
    13    3   13 1   
    14    5   14 1   
    15    7   15 1   
    16    8   16 1   
    17    9   17 1   
    18    9   18 1   
    19    9   19 1   
@<TRIPOS>SUBSTRUCTURE
     1 MOL         1 TEMP              0 ****  ****    0 ROOT
