@<TRIPOS>MOLECULE
2-hydroxyethyl
   12    11     1     0     0
SMALL
No Charge or Current Charge


@<TRIPOS>ATOM
      1 C1         -2.1460   -0.1940   -0.1210 c3        1 MOL      0.131500
      2 C2         -0.8940    0.4510    0.4420 c3        1 MOL      0.118600
      3 O1         -0.8530    0.2360    1.8470 os        1 MOL     -0.337200
      4 N1          0.2900    0.8040    2.4750 no        1 MOL      0.376000
      5 O2          1.0970    1.4030    1.7590 o         1 MOL     -0.182400
      6 O3          0.3130    0.6110    3.6910 o         1 MOL     -0.182400
      7 O4         -2.1150   -1.5890    0.1550 oh        1 MOL     -0.592700
      8 H1         -2.2040   -0.0620   -1.2060 h1        1 MOL      0.049400
      9 H2         -3.0380    0.2290    0.3500 h1        1 MOL      0.049400
     10 H3         -0.8900    1.5300    0.2610 h1        1 MOL      0.078600
     11 H4          0.0000    0.0000    0.0000 h1        1 MOL      0.078600
     12 H5         -2.9280   -1.9650   -0.2180 ho        1 MOL      0.412700
@<TRIPOS>BOND
     1    1    2 1   
     2    2    3 1   
     3    3    4 1   
     4    4    5 1   
     5    4    6 1   
     6    1    7 1   
     7    1    8 1   
     8    1    9 1   
     9    2   10 1   
    10    2   11 1   
    11    7   12 1   
@<TRIPOS>SUBSTRUCTURE
     1 MOL         1 TEMP              0 ****  ****    0 ROOT
