@<TRIPOS>MOLECULE
2-nitroaniline
   16    16     1     0     0
SMALL
No Charge or Current Charge


@<TRIPOS>ATOM
      1 C1          1.8850   -1.0360   -0.1120 ca        1 MOL     -0.059100
      2 C2          2.9210   -1.6310    0.6080 ca        1 MOL     -0.177800
      3 C3          2.8780   -1.6520    2.0020 ca        1 MOL     -0.044200
      4 C4          1.8000   -1.0790    2.6760 ca        1 MOL     -0.228400
      5 C5          0.7640   -0.4840    1.9550 ca        1 MOL      0.217500
      6 C6          0.8070   -0.4630    0.5610 ca        1 MOL     -0.202800
      7 N1         -0.3410    0.1030    2.6140 nh        1 MOL     -0.836000
      8 N2          1.7810   -1.1150    4.0980 no        1 MOL      0.309300
      9 O1          1.2440   -2.0910    4.6720 o         1 MOL     -0.202100
     10 O2          2.3030   -0.1690    4.7340 o         1 MOL     -0.202100
     11 H1          1.9180   -1.0200   -1.1980 ha        1 MOL      0.141700
     12 H2          3.7610   -2.0760    0.0840 ha        1 MOL      0.145800
     13 H3          3.6930   -2.1190    2.5500 ha        1 MOL      0.154700
     14 H4          0.0040   -0.0040   -0.0110 ha        1 MOL      0.143400
     15 H5         -1.0410    0.5610    2.0700 hn        1 MOL      0.420000
     16 H6         -0.3510    0.1310    3.6120 hn        1 MOL      0.420000
@<TRIPOS>BOND
     1    1    6 ar  
     2    1    2 ar  
     3    2    3 ar  
     4    3    4 ar  
     5    4    5 ar  
     6    5    6 ar  
     7    5    7 1   
     8    4    8 1   
     9    8    9 1   
    10    8   10 1   
    11    1   11 1   
    12    2   12 1   
    13    3   13 1   
    14    6   14 1   
    15    7   15 1   
    16    7   16 1   
@<TRIPOS>SUBSTRUCTURE
     1 MOL         1 TEMP              0 ****  ****    0 ROOT
