@<TRIPOS>MOLECULE
2,3-dimethylbuta-1,3-diene
   16    15     1     0     0
SMALL
No Charge or Current Charge


@<TRIPOS>ATOM
      1 C1         -1.5200   -0.5190    1.1450 c3        1 MOL     -0.060800
      2 C2         -0.4090    0.3020    0.5350 ce        1 MOL     -0.075900
      3 C3         -0.2100    1.5500    0.9970 c2        1 MOL     -0.218900
      4 C4          0.4070   -0.3010   -0.5360 ce        1 MOL     -0.075900
      5 C5          0.8170    0.3810   -1.6210 c2        1 MOL     -0.218900
      6 C6          0.8030   -1.7530   -0.4120 c3        1 MOL     -0.060800
      7 H1         -2.4720   -0.3840    0.6180 hc        1 MOL      0.042700
      8 H2         -1.6900   -0.2290    2.1880 hc        1 MOL      0.042700
      9 H3         -1.2820   -1.5870    1.1050 hc        1 MOL      0.042700
     10 H4          0.5630    2.2070    0.6160 ha        1 MOL      0.113800
     11 H5         -0.8310    1.9600    1.7880 ha        1 MOL      0.113800
     12 H6          1.4160   -0.0970   -2.3910 ha        1 MOL      0.113800
     13 H7          0.5790    1.4250   -1.7910 ha        1 MOL      0.113800
     14 H8          0.0510   -2.4020   -0.8760 hc        1 MOL      0.042700
     15 H9          1.7570   -1.9660   -0.9080 hc        1 MOL      0.042700
     16 H10         0.9200   -2.0360    0.6390 hc        1 MOL      0.042700
@<TRIPOS>BOND
     1    1    2 1   
     2    2    3 2   
     3    2    4 1   
     4    4    5 2   
     5    4    6 1   
     6    1    7 1   
     7    1    8 1   
     8    1    9 1   
     9    3   10 1   
    10    3   11 1   
    11    5   12 1   
    12    5   13 1   
    13    6   14 1   
    14    6   15 1   
    15    6   16 1   
@<TRIPOS>SUBSTRUCTURE
     1 MOL         1 TEMP              0 ****  ****    0 ROOT
