@<TRIPOS>MOLECULE
undecan-2-one
   34    33     1     0     0
SMALL
No Charge or Current Charge


@<TRIPOS>ATOM
      1 C1         -6.7540    2.6190    1.0080 c3        1 MOL     -0.092300
      2 C2         -5.3340    3.0650    0.7000 c3        1 MOL     -0.079700
      3 C3         -4.3150    1.9880    1.0770 c3        1 MOL     -0.078500
      4 C4         -2.8880    2.4440    0.7640 c3        1 MOL     -0.078400
      5 C5         -1.8230    1.4030    1.1220 c3        1 MOL     -0.078100
      6 C6         -0.3730    1.8020    0.8320 c3        1 MOL     -0.078300
      7 C7          0.6450    0.7240    1.2100 c3        1 MOL     -0.078100
      8 C8          2.0740    1.1780    0.8970 c3        1 MOL     -0.074800
      9 C9          3.1150    0.1220    1.2640 c3        1 MOL     -0.182400
     10 C10         4.5450    0.5400    0.9670 c         1 MOL      0.564700
     11 O1          4.8350    1.6300    0.4760 o         1 MOL     -0.530800
     12 C11         5.6170   -0.4520    1.3390 c3        1 MOL     -0.205700
     13 H1         -7.4770    3.3950    0.7350 hc        1 MOL      0.032600
     14 H2         -7.0070    1.7060    0.4590 hc        1 MOL      0.032600
     15 H3         -6.8640    2.4130    2.0780 hc        1 MOL      0.032600
     16 H4         -5.1200    3.9890    1.2500 hc        1 MOL      0.038600
     17 H5         -5.2540    3.2960   -0.3690 hc        1 MOL      0.038600
     18 H6         -4.4120    1.7630    2.1450 hc        1 MOL      0.038500
     19 H7         -4.5350    1.0650    0.5270 hc        1 MOL      0.038500
     20 H8         -2.8060    2.6550   -0.3100 hc        1 MOL      0.039500
     21 H9         -2.6780    3.3890    1.2780 hc        1 MOL      0.039500
     22 H10        -2.0500    0.4760    0.5810 hc        1 MOL      0.038200
     23 H11        -1.9070    1.1630    2.1890 hc        1 MOL      0.038200
     24 H12        -0.2610    2.0650   -0.2270 hc        1 MOL      0.041900
     25 H13        -0.1540    2.7160    1.3980 hc        1 MOL      0.041900
     26 H14         0.4260   -0.2000    0.6640 hc        1 MOL      0.037300
     27 H15         0.5580    0.4970    2.2790 hc        1 MOL      0.037300
     28 H16         2.2890    2.0890    1.4700 hc        1 MOL      0.055000
     29 H17         2.1580    1.4420   -0.1640 hc        1 MOL      0.055000
     30 H18         3.0590   -0.0780    2.3400 hc        1 MOL      0.063800
     31 H19         2.9050   -0.8130    0.7320 hc        1 MOL      0.063800
     32 H20         5.8080   -1.1190    0.4940 hc        1 MOL      0.062900
     33 H21         5.2870   -1.0490    2.1940 hc        1 MOL      0.062900
     34 H22         6.5300    0.0820    1.6130 hc        1 MOL      0.062900
@<TRIPOS>BOND
     1    1    2 1   
     2    2    3 1   
     3    3    4 1   
     4    4    5 1   
     5    5    6 1   
     6    6    7 1   
     7    7    8 1   
     8    8    9 1   
     9    9   10 1   
    10   10   11 2   
    11   10   12 1   
    12    1   13 1   
    13    1   14 1   
    14    1   15 1   
    15    2   16 1   
    16    2   17 1   
    17    3   18 1   
    18    3   19 1   
    19    4   20 1   
    20    4   21 1   
    21    5   22 1   
    22    5   23 1   
    23    6   24 1   
    24    6   25 1   
    25    7   26 1   
    26    7   27 1   
    27    8   28 1   
    28    8   29 1   
    29    9   30 1   
    30    9   31 1   
    31   12   32 1   
    32   12   33 1   
    33   12   34 1   
@<TRIPOS>SUBSTRUCTURE
     1 MOL         1 TEMP              0 ****  ****    0 ROOT
