@<TRIPOS>MOLECULE
phenylmethanol
   16    16     1     0     0
SMALL
No Charge or Current Charge


@<TRIPOS>ATOM
      1 C1          1.8850   -1.0360   -0.1120 ca        1 MOL     -0.123300
      2 C2          2.9210   -1.6310    0.6080 ca        1 MOL     -0.133900
      3 C3          2.8780   -1.6520    2.0020 ca        1 MOL     -0.108400
      4 C4          1.8000   -1.0790    2.6760 ca        1 MOL     -0.087100
      5 C5          0.7640   -0.4840    1.9550 ca        1 MOL     -0.108400
      6 C6          0.8070   -0.4630    0.5610 ca        1 MOL     -0.133900
      7 C7          1.7550   -1.1010    4.1660 c3        1 MOL      0.177200
      8 O1          1.0930   -2.2830    4.6010 oh        1 MOL     -0.591200
      9 H1          1.9180   -1.0210   -1.1980 ha        1 MOL      0.130400
     10 H2          3.7600   -2.0780    0.0840 ha        1 MOL      0.131500
     11 H3          3.6900   -2.1170    2.5550 ha        1 MOL      0.133200
     12 H4         -0.0800   -0.0350    2.4710 ha        1 MOL      0.133200
     13 H5         -0.0010   -0.0010    0.0000 ha        1 MOL      0.131500
     14 H6          2.7650   -1.0860    4.5980 h1        1 MOL      0.025600
     15 H7          1.2150   -0.2290    4.5600 h1        1 MOL      0.025600
     16 H8          1.0850   -2.2580    5.5710 ho        1 MOL      0.397800
@<TRIPOS>BOND
     1    1    6 ar  
     2    1    2 ar  
     3    2    3 ar  
     4    3    4 ar  
     5    4    5 ar  
     6    5    6 ar  
     7    4    7 1   
     8    7    8 1   
     9    1    9 1   
    10    2   10 1   
    11    3   11 1   
    12    5   12 1   
    13    6   13 1   
    14    7   14 1   
    15    7   15 1   
    16    8   16 1   
@<TRIPOS>SUBSTRUCTURE
     1 MOL         1 TEMP              0 ****  ****    0 ROOT
