@<TRIPOS>MOLECULE
1-methylnaphthalene
   21    22     1     0     0
SMALL
No Charge or Current Charge


@<TRIPOS>ATOM
      1 C1         -1.0090   -4.3870    1.0440 c3        1 MOL     -0.056600
      2 C2         -0.0480   -3.3540    0.5450 ca        1 MOL     -0.062900
      3 C3         -0.4970   -2.0340    0.4940 ca        1 MOL     -0.134000
      4 C4          0.3500   -1.0280    0.0390 ca        1 MOL     -0.123000
      5 C5          1.6480   -1.3370   -0.3660 ca        1 MOL     -0.122800
      6 C6          2.1170   -2.6600   -0.3220 ca        1 MOL     -0.033600
      7 C7          1.2560   -3.6840    0.1400 ca        1 MOL     -0.029600
      8 C8          1.7240   -5.0070    0.1850 ca        1 MOL     -0.118100
      9 C9          3.0230   -5.3170   -0.2210 ca        1 MOL     -0.128400
     10 C10         3.8690   -4.3100   -0.6760 ca        1 MOL     -0.128300
     11 C11         3.4210   -2.9900   -0.7270 ca        1 MOL     -0.118600
     12 H1         -0.9140   -4.4940    2.1290 hc        1 MOL      0.045000
     13 H2         -2.0410   -4.1090    0.8060 hc        1 MOL      0.045000
     14 H3         -0.8190   -5.3580    0.5750 hc        1 MOL      0.045000
     15 H4         -1.5060   -1.7800    0.8070 ha        1 MOL      0.130600
     16 H5          0.0010   -0.0000   -0.0020 ha        1 MOL      0.132400
     17 H6          2.2930   -0.5340   -0.7190 ha        1 MOL      0.131200
     18 H7          1.0940   -5.8210    0.5340 ha        1 MOL      0.132700
     19 H8          3.3730   -6.3440   -0.1820 ha        1 MOL      0.131500
     20 H9          4.8800   -4.5520   -0.9920 ha        1 MOL      0.131100
     21 H10         4.1000   -2.2200   -1.0860 ha        1 MOL      0.131500
@<TRIPOS>BOND
     1    1    2 1   
     2    2    7 ar  
     3    2    3 ar  
     4    3    4 ar  
     5    4    5 ar  
     6    5    6 ar  
     7    6   11 ar  
     8    6    7 ar  
     9    7    8 ar  
    10    8    9 ar  
    11    9   10 ar  
    12   10   11 ar  
    13    1   12 1   
    14    1   13 1   
    15    1   14 1   
    16    3   15 1   
    17    4   16 1   
    18    5   17 1   
    19    8   18 1   
    20    9   19 1   
    21   10   20 1   
    22   11   21 1   
@<TRIPOS>SUBSTRUCTURE
     1 MOL         1 TEMP              0 ****  ****    0 ROOT
