@<TRIPOS>MOLECULE
(3R)-2,3-dimethylpentane
   23    22     1     0     0
SMALL
No Charge or Current Charge


@<TRIPOS>ATOM
      1 C1          2.9900    0.4170   -0.2080 c3        1 MOL     -0.092300
      2 C2          1.6570   -0.3180   -0.2210 c3        1 MOL     -0.077100
      3 C3          0.4240    0.6100   -0.1250 c3        1 MOL     -0.057700
      4 H1          0.4620    1.2820   -0.9940 hc        1 MOL      0.042500
      5 C4         -0.8440   -0.2410   -0.2800 c3        1 MOL     -0.090800
      6 C5          0.3990    1.5040    1.1480 c3        1 MOL     -0.061200
      7 C6         -0.8240    2.4200    1.2390 c3        1 MOL     -0.090000
      8 C7          0.5140    0.6740    2.4330 c3        1 MOL     -0.090000
      9 H2          3.8130   -0.3010   -0.2790 hc        1 MOL      0.032700
     10 H3          3.0800    1.1030   -1.0540 hc        1 MOL      0.032700
     11 H4          3.1160    0.9860    0.7190 hc        1 MOL      0.032700
     12 H5          1.6460   -1.0060    0.6340 hc        1 MOL      0.038400
     13 H6          1.5990   -0.9450   -1.1180 hc        1 MOL      0.038400
     14 H7         -1.7500    0.3680   -0.2200 hc        1 MOL      0.033400
     15 H8         -0.8550   -0.7820   -1.2320 hc        1 MOL      0.033400
     16 H9         -0.9070   -0.9860    0.5220 hc        1 MOL      0.033400
     17 H10         1.2880    2.1460    1.1240 hc        1 MOL      0.043800
     18 H11        -0.8030    3.0300    2.1470 hc        1 MOL      0.033000
     19 H12        -1.7450    1.8260    1.2710 hc        1 MOL      0.033000
     20 H13        -0.8960    3.0900    0.3760 hc        1 MOL      0.033000
     21 H14         0.4940    1.3280    3.3120 hc        1 MOL      0.033000
     22 H15         1.4570    0.1180    2.4560 hc        1 MOL      0.033000
     23 H16        -0.3100   -0.0380    2.5360 hc        1 MOL      0.033000
@<TRIPOS>BOND
     1    1    2 1   
     2    2    3 1   
     3    3    4 1   
     4    3    5 1   
     5    3    6 1   
     6    6    7 1   
     7    6    8 1   
     8    1    9 1   
     9    1   10 1   
    10    1   11 1   
    11    2   12 1   
    12    2   13 1   
    13    5   14 1   
    14    5   15 1   
    15    5   16 1   
    16    6   17 1   
    17    7   18 1   
    18    7   19 1   
    19    7   20 1   
    20    8   21 1   
    21    8   22 1   
    22    8   23 1   
@<TRIPOS>SUBSTRUCTURE
     1 MOL         1 TEMP              0 ****  ****    0 ROOT
