@<TRIPOS>MOLECULE
hept-1-ene
   21    20     1     0     0
SMALL
No Charge or Current Charge


@<TRIPOS>ATOM
      1 C1         -5.9540    0.4470   -2.6220 c3        1 MOL     -0.092300
      2 C2         -5.7470   -0.4650   -1.4230 c3        1 MOL     -0.080300
      3 C3         -4.5290   -0.0420   -0.6000 c3        1 MOL     -0.079000
      4 C4         -4.3270   -0.9640    0.6060 c3        1 MOL     -0.075400
      5 C5         -3.1160   -0.5780    1.4610 c3        1 MOL     -0.053300
      6 C6         -2.9180   -1.4820    2.6420 c2        1 MOL     -0.162500
      7 C7         -1.8160   -2.2110    2.8490 c2        1 MOL     -0.223800
      8 H1         -6.8270    0.1370   -3.2040 hc        1 MOL      0.032800
      9 H2         -5.0790    0.4340   -3.2790 hc        1 MOL      0.032800
     10 H3         -6.1150    1.4780   -2.2900 hc        1 MOL      0.032800
     11 H4         -5.6190   -1.4960   -1.7730 hc        1 MOL      0.038300
     12 H5         -6.6460   -0.4440   -0.7960 hc        1 MOL      0.038300
     13 H6         -3.6390   -0.0570   -1.2400 hc        1 MOL      0.039500
     14 H7         -4.6620    0.9910   -0.2540 hc        1 MOL      0.039500
     15 H8         -5.2220   -0.9270    1.2400 hc        1 MOL      0.041500
     16 H9         -4.2260   -2.0020    0.2640 hc        1 MOL      0.041500
     17 H10        -3.2650    0.4410    1.8380 hc        1 MOL      0.045600
     18 H11        -2.2170   -0.5490    0.8330 hc        1 MOL      0.045600
     19 H12        -3.7220   -1.5320    3.3720 ha        1 MOL      0.117400
     20 H13        -1.7160   -2.8530    3.7180 ha        1 MOL      0.110500
     21 H14        -0.9920   -2.1730    2.1460 ha        1 MOL      0.110500
@<TRIPOS>BOND
     1    1    2 1   
     2    2    3 1   
     3    3    4 1   
     4    4    5 1   
     5    5    6 1   
     6    6    7 2   
     7    1    8 1   
     8    1    9 1   
     9    1   10 1   
    10    2   11 1   
    11    2   12 1   
    12    3   13 1   
    13    3   14 1   
    14    4   15 1   
    15    4   16 1   
    16    5   17 1   
    17    5   18 1   
    18    6   19 1   
    19    7   20 1   
    20    7   21 1   
@<TRIPOS>SUBSTRUCTURE
     1 MOL         1 TEMP              0 ****  ****    0 ROOT
