@<TRIPOS>MOLECULE
(Z)-1,2-dichloroethylene
    6     5     1     0     0
SMALL
No Charge or Current Charge


@<TRIPOS>ATOM
      1 C1         -0.6310    0.0860   -0.1910 c2        1 MOL     -0.073800
      2 C2          0.6320   -0.0860    0.1910 c2        1 MOL     -0.073800
      3 Cl1         1.7840   -0.9100   -0.7720 cl        1 MOL     -0.086800
      4 Cl2        -1.2350   -0.5000   -1.6820 cl        1 MOL     -0.086800
      5 H1         -1.3860    0.6000    0.3890 h4        1 MOL      0.160600
      6 H2          1.0480    0.2700    1.1240 h4        1 MOL      0.160600
@<TRIPOS>BOND
     1    1    2 2   
     2    2    3 1   
     3    1    4 1   
     4    1    5 1   
     5    2    6 1   
@<TRIPOS>SUBSTRUCTURE
     1 MOL         1 TEMP              0 ****  ****    0 ROOT
