@<TRIPOS>MOLECULE
(2S,5R)-2-isopropyl-5-methyl-cyclohexanone
   29    29     1     0     0
SMALL
No Charge or Current Charge


@<TRIPOS>ATOM
      1 C1         -1.5680    2.2510   -0.1610 c3        1 MOL     -0.090400
      2 C2         -1.3300    1.2030   -1.2460 c3        1 MOL     -0.059700
      3 H1         -1.2560    1.7240   -2.2110 hc        1 MOL      0.053800
      4 C3         -2.5090    0.2240   -1.3230 c3        1 MOL     -0.082000
      5 C4         -2.2820   -0.8280   -2.4090 c3        1 MOL     -0.072400
      6 C5         -0.9890   -1.6140   -2.1780 c3        1 MOL     -0.155900
      7 H2         -1.0630   -2.1770   -1.2390 hc        1 MOL      0.070200
      8 C6          0.1740   -0.6410   -2.0180 c         1 MOL      0.571600
      9 O1          1.2450   -0.7780   -2.6080 o         1 MOL     -0.532700
     10 C7         -0.0180    0.4590   -0.9950 c3        1 MOL     -0.178900
     11 C8         -0.7470   -2.6020   -3.3150 c3        1 MOL     -0.058200
     12 C9          0.2200   -3.7010   -2.8770 c3        1 MOL     -0.093400
     13 C10        -2.0660   -3.2080   -3.7910 c3        1 MOL     -0.093400
     14 H3         -1.6490    1.7750    0.8210 hc        1 MOL      0.037400
     15 H4         -0.7420    2.9670   -0.1300 hc        1 MOL      0.037400
     16 H5         -2.4940    2.8010   -0.3540 hc        1 MOL      0.037400
     17 H6         -2.6520   -0.2740   -0.3550 hc        1 MOL      0.045000
     18 H7         -3.4340    0.7700   -1.5410 hc        1 MOL      0.045000
     19 H8         -3.1360   -1.5150   -2.4300 hc        1 MOL      0.050300
     20 H9         -2.2490   -0.3290   -3.3860 hc        1 MOL      0.050300
     21 H10         0.0000    0.0000    0.0000 hc        1 MOL      0.067800
     22 H11         0.8280    1.1520   -1.0610 hc        1 MOL      0.067800
     23 H12        -0.2940   -2.0610   -4.1550 hc        1 MOL      0.063900
     24 H13         0.4010   -4.4170   -3.6860 hc        1 MOL      0.036500
     25 H14        -0.1810   -4.2520   -2.0200 hc        1 MOL      0.036500
     26 H15         1.1840   -3.2760   -2.5790 hc        1 MOL      0.036500
     27 H16        -1.9050   -3.9200   -4.6080 hc        1 MOL      0.036500
     28 H17        -2.7460   -2.4280   -4.1500 hc        1 MOL      0.036500
     29 H18        -2.5670   -3.7380   -2.9740 hc        1 MOL      0.036500
@<TRIPOS>BOND
     1    1    2 1   
     2    2    3 1   
     3    2   10 1   
     4    2    4 1   
     5    4    5 1   
     6    5    6 1   
     7    6    7 1   
     8    6    8 1   
     9    8    9 2   
    10    8   10 1   
    11    6   11 1   
    12   11   12 1   
    13   11   13 1   
    14    1   14 1   
    15    1   15 1   
    16    1   16 1   
    17    4   17 1   
    18    4   18 1   
    19    5   19 1   
    20    5   20 1   
    21   10   21 1   
    22   10   22 1   
    23   11   23 1   
    24   12   24 1   
    25   12   25 1   
    26   12   26 1   
    27   13   27 1   
    28   13   28 1   
    29   13   29 1   
@<TRIPOS>SUBSTRUCTURE
     1 MOL         1 TEMP              0 ****  ****    0 ROOT
