@<TRIPOS>MOLECULE
1,1-difluoroethane
    8     7     1     0     0
SMALL
No Charge or Current Charge


@<TRIPOS>ATOM
      1 C1         -0.3710    0.2930   -0.6160 c3        1 MOL     -0.152200
      2 C2          0.3060   -0.3500    0.5680 c3        1 MOL      0.398700
      3 F1          0.0610    0.3820    1.6830 f         1 MOL     -0.249500
      4 F2          1.6480   -0.3450    0.3810 f         1 MOL     -0.249500
      5 H1         -0.1810   -0.2890   -1.5230 hc        1 MOL      0.063600
      6 H2         -1.4540    0.3370   -0.4680 hc        1 MOL      0.063600
      7 H3          0.0140    1.3040   -0.7810 hc        1 MOL      0.063600
      8 H4         -0.0290   -1.3770    0.7340 h2        1 MOL      0.061500
@<TRIPOS>BOND
     1    1    2 1   
     2    2    3 1   
     3    2    4 1   
     4    1    5 1   
     5    1    6 1   
     6    1    7 1   
     7    2    8 1   
@<TRIPOS>SUBSTRUCTURE
     1 MOL         1 TEMP              0 ****  ****    0 ROOT
