@<TRIPOS>MOLECULE
1,1,1,2,2,2-hexachloroethane
    8     7     1     0     0
SMALL
No Charge or Current Charge


@<TRIPOS>ATOM
      1 C1          0.2060   -0.3630   -0.6550 c3        1 MOL      0.221900
      2 C2         -0.2050    0.3630    0.6550 c3        1 MOL      0.221900
      3 Cl1        -1.2160    1.8230    0.3250 cl        1 MOL     -0.074000
      4 Cl2        -1.1660   -0.7090    1.7440 cl        1 MOL     -0.074000
      5 Cl3         1.2330    0.9180    1.5950 cl        1 MOL     -0.074000
      6 Cl4         1.1670    0.7090   -1.7440 cl        1 MOL     -0.074000
      7 Cl5        -1.2330   -0.9180   -1.5950 cl        1 MOL     -0.074000
      8 Cl6         1.2160   -1.8230   -0.3250 cl        1 MOL     -0.074000
@<TRIPOS>BOND
     1    1    2 1   
     2    2    3 1   
     3    2    4 1   
     4    2    5 1   
     5    1    6 1   
     6    1    7 1   
     7    1    8 1   
@<TRIPOS>SUBSTRUCTURE
     1 MOL         1 TEMP              0 ****  ****    0 ROOT
