@<TRIPOS>MOLECULE
4-chloroaniline
   14    14     1     0     0
SMALL
No Charge or Current Charge


@<TRIPOS>ATOM
      1 C1          1.8850   -1.0360   -0.1120 ca        1 MOL     -0.187900
      2 C2          2.9210   -1.6310    0.6080 ca        1 MOL     -0.083900
      3 C3          2.8780   -1.6520    2.0020 ca        1 MOL     -0.029200
      4 C4          1.8000   -1.0790    2.6760 ca        1 MOL     -0.083900
      5 C5          0.7640   -0.4840    1.9550 ca        1 MOL     -0.187900
      6 C6          0.8070   -0.4630    0.5610 ca        1 MOL      0.148200
      7 N1         -0.2400    0.1380   -0.1680 nh        1 MOL     -0.824700
      8 Cl1         4.1550   -2.3870    2.8910 cl        1 MOL     -0.101300
      9 H1          1.9290   -1.0260   -1.1980 ha        1 MOL      0.135600
     10 H2          3.7550   -2.0750    0.0710 ha        1 MOL      0.144700
     11 H3          1.7530   -1.0880    3.7620 ha        1 MOL      0.144700
     12 H4         -0.0720   -0.0400    2.4900 ha        1 MOL      0.135600
     13 H5         -1.0300    0.5040    0.3240 hn        1 MOL      0.395000
     14 H6         -0.2210    0.1050   -1.1670 hn        1 MOL      0.395000
@<TRIPOS>BOND
     1    1    6 ar  
     2    1    2 ar  
     3    2    3 ar  
     4    3    4 ar  
     5    4    5 ar  
     6    5    6 ar  
     7    6    7 1   
     8    3    8 1   
     9    1    9 1   
    10    2   10 1   
    11    4   11 1   
    12    5   12 1   
    13    7   13 1   
    14    7   14 1   
@<TRIPOS>SUBSTRUCTURE
     1 MOL         1 TEMP              0 ****  ****    0 ROOT
