@<TRIPOS>MOLECULE
octan-1-ol
   27    26     1     0     0
SMALL
No Charge or Current Charge


@<TRIPOS>ATOM
      1 C1          2.5800    3.1400   -2.3930 c3        1 MOL     -0.091800
      2 C2          2.1180    1.7400   -2.7630 c3        1 MOL     -0.080400
      3 C3          0.9800    1.7770   -3.7840 c3        1 MOL     -0.078800
      4 C4          0.5210    0.3650   -4.1520 c3        1 MOL     -0.078600
      5 C5         -0.6200    0.3420   -5.1750 c3        1 MOL     -0.078300
      6 C6         -1.0790   -1.0710   -5.5420 c3        1 MOL     -0.078200
      7 C7         -2.2160   -1.0340   -6.5630 c3        1 MOL     -0.083300
      8 C8         -2.6810   -2.4350   -6.9360 c3        1 MOL      0.131400
      9 O1         -3.7340   -2.3320   -7.8840 oh        1 MOL     -0.602300
     10 H1          3.3940    3.1040   -1.6610 hc        1 MOL      0.032900
     11 H2          1.7580    3.7240   -1.9640 hc        1 MOL      0.032900
     12 H3          2.9440    3.6670   -3.2800 hc        1 MOL      0.032900
     13 H4          1.7880    1.2190   -1.8570 hc        1 MOL      0.037500
     14 H5          2.9670    1.1780   -3.1700 hc        1 MOL      0.037500
     15 H6          0.1440    2.3480   -3.3670 hc        1 MOL      0.039700
     16 H7          1.3150    2.3020   -4.6870 hc        1 MOL      0.039700
     17 H8          0.2130   -0.1730   -3.2470 hc        1 MOL      0.038900
     18 H9          1.3690   -0.1890   -4.5750 hc        1 MOL      0.038900
     19 H10        -1.4690    0.9200   -4.7910 hc        1 MOL      0.041600
     20 H11        -0.2740    0.8530   -6.0820 hc        1 MOL      0.041600
     21 H12        -1.4210   -1.6000   -4.6460 hc        1 MOL      0.039300
     22 H13        -0.2350   -1.6370   -5.9540 hc        1 MOL      0.039300
     23 H14        -1.8950   -0.5060   -7.4690 hc        1 MOL      0.055200
     24 H15        -3.0640   -0.4630   -6.1660 hc        1 MOL      0.055200
     25 H16        -1.8640   -3.0110   -7.3840 h1        1 MOL      0.019400
     26 H17        -3.0540   -2.9700   -6.0570 h1        1 MOL      0.019400
     27 H18        -4.0060   -3.2390   -8.1000 ho        1 MOL      0.398400
@<TRIPOS>BOND
     1    1    2 1   
     2    2    3 1   
     3    3    4 1   
     4    4    5 1   
     5    5    6 1   
     6    6    7 1   
     7    7    8 1   
     8    8    9 1   
     9    1   10 1   
    10    1   11 1   
    11    1   12 1   
    12    2   13 1   
    13    2   14 1   
    14    3   15 1   
    15    3   16 1   
    16    4   17 1   
    17    4   18 1   
    18    5   19 1   
    19    5   20 1   
    20    6   21 1   
    21    6   22 1   
    22    7   23 1   
    23    7   24 1   
    24    8   25 1   
    25    8   26 1   
    26    9   27 1   
@<TRIPOS>SUBSTRUCTURE
     1 MOL         1 TEMP              0 ****  ****    0 ROOT
