@<TRIPOS>MOLECULE
2-methylhexane
   23    22     1     0     0
SMALL
No Charge or Current Charge


@<TRIPOS>ATOM
      1 C1         -0.5190    0.6340   -0.8650 c3        1 MOL     -0.091600
      2 C2         -1.5690    1.5500   -0.2570 c3        1 MOL     -0.080800
      3 C3         -2.6300    0.7570    0.5080 c3        1 MOL     -0.079200
      4 C4         -3.6830    1.6860    1.1180 c3        1 MOL     -0.073700
      5 C5         -4.7800    0.9410    1.9020 c3        1 MOL     -0.067300
      6 C6         -4.1490    0.1530    3.0530 c3        1 MOL     -0.090200
      7 C7         -5.8510    1.8850    2.4490 c3        1 MOL     -0.090200
      8 H1          0.2290    1.2220   -1.4060 hc        1 MOL      0.032800
      9 H2         -0.0030    0.0600   -0.0890 hc        1 MOL      0.032800
     10 H3         -0.9730   -0.0700   -1.5690 hc        1 MOL      0.032800
     11 H4         -2.0430    2.1330   -1.0540 hc        1 MOL      0.037400
     12 H5         -1.0770    2.2620    0.4170 hc        1 MOL      0.037400
     13 H6         -3.1050    0.0460   -0.1770 hc        1 MOL      0.039500
     14 H7         -2.1490    0.1730    1.3030 hc        1 MOL      0.039500
     15 H8         -3.1820    2.3890    1.7950 hc        1 MOL      0.038800
     16 H9         -4.1410    2.2890    0.3230 hc        1 MOL      0.038800
     17 H10        -5.2660    0.2220    1.2300 hc        1 MOL      0.044800
     18 H11        -4.9090   -0.3880    3.6270 hc        1 MOL      0.033100
     19 H12        -3.4260   -0.5780    2.6750 hc        1 MOL      0.033100
     20 H13        -3.6180    0.8220    3.7380 hc        1 MOL      0.033100
     21 H14        -6.6200    1.3350    3.0020 hc        1 MOL      0.033100
     22 H15        -6.3440    2.4270    1.6350 hc        1 MOL      0.033100
     23 H16        -5.4180    2.6340    3.1190 hc        1 MOL      0.033100
@<TRIPOS>BOND
     1    1    2 1   
     2    2    3 1   
     3    3    4 1   
     4    4    5 1   
     5    5    6 1   
     6    5    7 1   
     7    1    8 1   
     8    1    9 1   
     9    1   10 1   
    10    2   11 1   
    11    2   12 1   
    12    3   13 1   
    13    3   14 1   
    14    4   15 1   
    15    4   16 1   
    16    5   17 1   
    17    6   18 1   
    18    6   19 1   
    19    6   20 1   
    20    7   21 1   
    21    7   22 1   
    22    7   23 1   
@<TRIPOS>SUBSTRUCTURE
     1 MOL         1 TEMP              0 ****  ****    0 ROOT
