@<TRIPOS>MOLECULE
neopentane
   17    16     1     0     0
SMALL
No Charge or Current Charge


@<TRIPOS>ATOM
      1 C1         -0.6140   -0.1250    0.8990 c3        1 MOL     -0.084900
      2 C2          0.2610   -0.3500    2.1410 c3        1 MOL     -0.059600
      3 C3          1.1850    0.8590    2.3420 c3        1 MOL     -0.084900
      4 C4          1.1080   -1.6160    1.9470 c3        1 MOL     -0.084900
      5 C5         -0.6370   -0.5190    3.3750 c3        1 MOL     -0.084900
      6 H1         -1.2860   -0.9730    0.7290 hc        1 MOL      0.033300
      7 H2         -1.2320    0.7740    1.0080 hc        1 MOL      0.033300
      8 H3          0.0000   -0.0000   -0.0000 hc        1 MOL      0.033300
      9 H4          1.8230    0.7280    3.2230 hc        1 MOL      0.033300
     10 H5          0.6080    1.7800    2.4830 hc        1 MOL      0.033300
     11 H6          1.8400    1.0060    1.4760 hc        1 MOL      0.033300
     12 H7          1.7440   -1.8030    2.8200 hc        1 MOL      0.033300
     13 H8          0.4740   -2.4980    1.8010 hc        1 MOL      0.033300
     14 H9          1.7600   -1.5250    1.0720 hc        1 MOL      0.033300
     15 H10        -0.0410   -0.6820    4.2790 hc        1 MOL      0.033300
     16 H11        -1.3100   -1.3760    3.2610 hc        1 MOL      0.033300
     17 H12        -1.2560    0.3710    3.5390 hc        1 MOL      0.033300
@<TRIPOS>BOND
     1    1    2 1   
     2    2    3 1   
     3    2    4 1   
     4    2    5 1   
     5    1    6 1   
     6    1    7 1   
     7    1    8 1   
     8    3    9 1   
     9    3   10 1   
    10    3   11 1   
    11    4   12 1   
    12    4   13 1   
    13    4   14 1   
    14    5   15 1   
    15    5   16 1   
    16    5   17 1   
@<TRIPOS>SUBSTRUCTURE
     1 MOL         1 TEMP              0 ****  ****    0 ROOT
