@<TRIPOS>MOLECULE
trichloro(nitro)methane
    7     6     1     0     0
SMALL
No Charge or Current Charge


@<TRIPOS>ATOM
      1 C1          0.5770   -0.0300    0.1600 c3        1 MOL      0.182800
      2 N1         -0.8840    0.0630   -0.2390 no        1 MOL      0.231900
      3 O1         -1.4030   -0.8870   -0.8420 o         1 MOL     -0.147500
      4 O2         -1.4900    1.1050    0.0620 o         1 MOL     -0.147500
      5 Cl1         0.6840   -1.4350    1.2180 cl        1 MOL     -0.039900
      6 Cl2         1.4670   -0.2250   -1.3490 cl        1 MOL     -0.039900
      7 Cl3         1.0500    1.4490    0.9980 cl        1 MOL     -0.039900
@<TRIPOS>BOND
     1    1    2 1   
     2    2    3 1   
     3    2    4 1   
     4    1    5 1   
     5    1    6 1   
     6    1    7 1   
@<TRIPOS>SUBSTRUCTURE
     1 MOL         1 TEMP              0 ****  ****    0 ROOT
