@<TRIPOS>MOLECULE
1,4-dichlorobenzene
   12    12     1     0     0
SMALL
No Charge or Current Charge


@<TRIPOS>ATOM
      1 C1          1.8850   -1.0360   -0.1120 ca        1 MOL     -0.116500
      2 C2          2.9210   -1.6310    0.6080 ca        1 MOL     -0.116400
      3 C3          2.8780   -1.6520    2.0020 ca        1 MOL      0.015700
      4 C4          1.8000   -1.0790    2.6760 ca        1 MOL     -0.116400
      5 C5          0.7640   -0.4840    1.9550 ca        1 MOL     -0.116400
      6 C6          0.8070   -0.4630    0.5610 ca        1 MOL      0.015700
      7 Cl1        -0.4710    0.2710   -0.3280 cl        1 MOL     -0.087300
      8 Cl2         4.1560   -2.3850    2.8910 cl        1 MOL     -0.087300
      9 H1          1.9310   -1.0270   -1.1980 ha        1 MOL      0.152300
     10 H2          3.7550   -2.0740    0.0710 ha        1 MOL      0.152300
     11 H3          1.7540   -1.0880    3.7610 ha        1 MOL      0.152300
     12 H4         -0.0700   -0.0410    2.4930 ha        1 MOL      0.152300
@<TRIPOS>BOND
     1    1    6 ar  
     2    1    2 ar  
     3    2    3 ar  
     4    3    4 ar  
     5    4    5 ar  
     6    5    6 ar  
     7    6    7 1   
     8    3    8 1   
     9    1    9 1   
    10    2   10 1   
    11    4   11 1   
    12    5   12 1   
@<TRIPOS>SUBSTRUCTURE
     1 MOL         1 TEMP              0 ****  ****    0 ROOT
