@<TRIPOS>MOLECULE
4-methylmorpholine
   18    18     1     0     0
SMALL
No Charge or Current Charge


@<TRIPOS>ATOM
      1 C1          0.9620   -2.0410   -1.4120 c3        1 MOL      0.148800
      2 N1          0.2060   -0.8930   -1.9090 n3        1 MOL     -0.712600
      3 C2         -1.2150   -1.2330   -2.0650 c3        1 MOL      0.122300
      4 C3         -1.9850   -0.0170   -2.5730 c3        1 MOL      0.127200
      5 O1         -1.8310    1.0800   -1.6720 os        1 MOL     -0.417000
      6 C4         -0.4560    1.4390   -1.5390 c3        1 MOL      0.127200
      7 C5          0.3520    0.2580   -1.0070 c3        1 MOL      0.122300
      8 H1          0.8450   -2.8900   -2.0900 h1        1 MOL      0.034200
      9 H2          0.6020   -2.3300   -0.4200 h1        1 MOL      0.034200
     10 H3          2.0240   -1.7910   -1.3400 h1        1 MOL      0.034200
     11 H4         -1.3340   -2.0530   -2.7820 h1        1 MOL      0.041300
     12 H5         -1.6370   -1.5570   -1.1040 h1        1 MOL      0.041300
     13 H6         -1.6550    0.2820   -3.5750 h1        1 MOL      0.053600
     14 H7         -3.0530   -0.2510   -2.6330 h1        1 MOL      0.053600
     15 H8         -0.0730    1.7870   -2.5060 h1        1 MOL      0.053600
     16 H9         -0.3960    2.2770   -0.8370 h1        1 MOL      0.053600
     17 H10         1.4060    0.5520   -0.9330 h1        1 MOL      0.041300
     18 H11        -0.0010   -0.0000   -0.0000 h1        1 MOL      0.041300
@<TRIPOS>BOND
     1    1    2 1   
     2    2    7 1   
     3    2    3 1   
     4    3    4 1   
     5    4    5 1   
     6    5    6 1   
     7    6    7 1   
     8    1    8 1   
     9    1    9 1   
    10    1   10 1   
    11    3   11 1   
    12    3   12 1   
    13    4   13 1   
    14    4   14 1   
    15    6   15 1   
    16    6   16 1   
    17    7   17 1   
    18    7   18 1   
@<TRIPOS>SUBSTRUCTURE
     1 MOL         1 TEMP              0 ****  ****    0 ROOT
