@<TRIPOS>MOLECULE
methyl
   12    11     1     0     0
SMALL
No Charge or Current Charge


@<TRIPOS>ATOM
      1 C1          0.9320   -0.5580    0.2000 c3        1 MOL      0.164400
      2 O1          1.9820    0.3850    0.3490 os        1 MOL     -0.576300
      3 S1          3.4450   -0.1410    0.8490 s6        1 MOL      1.599700
      4 O2          3.9560   -1.1140   -0.0960 o         1 MOL     -0.666000
      5 O3          3.4010   -0.4040    2.2730 o         1 MOL     -0.666000
      6 C2          4.3140    1.3850    0.5950 c3        1 MOL     -0.382800
      7 H1          0.0270   -0.0470   -0.1390 h1        1 MOL      0.045900
      8 H2          0.7470   -1.0530    1.1570 h1        1 MOL      0.045900
      9 H3          1.2260   -1.3040   -0.5430 h1        1 MOL      0.045900
     10 H4          5.3490    1.2260    0.8850 h1        1 MOL      0.129900
     11 H5          4.2340    1.6370   -0.4590 h1        1 MOL      0.129900
     12 H6          3.8410    2.1390    1.2180 h1        1 MOL      0.129900
@<TRIPOS>BOND
     1    1    2 1   
     2    2    3 1   
     3    3    4 2   
     4    3    5 2   
     5    3    6 1   
     6    1    7 1   
     7    1    8 1   
     8    1    9 1   
     9    6   10 1   
    10    6   11 1   
    11    6   12 1   
@<TRIPOS>SUBSTRUCTURE
     1 MOL         1 TEMP              0 ****  ****    0 ROOT
