@<TRIPOS>MOLECULE
ethoxyethane
   15    14     1     0     0
SMALL
No Charge or Current Charge


@<TRIPOS>ATOM
      1 C1          0.9170    1.4500    0.5860 c3        1 MOL     -0.096300
      2 C2          1.9100    0.9130   -0.4220 c3        1 MOL      0.129200
      3 O1          1.5170    1.3240   -1.7230 os        1 MOL     -0.423500
      4 C3          2.4160    0.8470   -2.7160 c3        1 MOL      0.129200
      5 C4          1.9420    1.3180   -4.0740 c3        1 MOL     -0.096300
      6 H1          1.1910    1.1510    1.6010 hc        1 MOL      0.044700
      7 H2          0.8720    2.5430    0.5390 hc        1 MOL      0.044700
      8 H3         -0.0910    1.0810    0.3690 hc        1 MOL      0.044700
      9 H4          1.9350   -0.1810   -0.3910 h1        1 MOL      0.022400
     10 H5          2.9130    1.3000   -0.2180 h1        1 MOL      0.022400
     11 H6          3.4140    1.2360   -2.5010 h1        1 MOL      0.022400
     12 H7          2.4380   -0.2450   -2.6730 h1        1 MOL      0.022400
     13 H8          2.6130    0.9680   -4.8630 hc        1 MOL      0.044700
     14 H9          0.9310    0.9500   -4.2800 hc        1 MOL      0.044700
     15 H10         1.8950    2.4120   -4.1090 hc        1 MOL      0.044700
@<TRIPOS>BOND
     1    1    2 1   
     2    2    3 1   
     3    3    4 1   
     4    4    5 1   
     5    1    6 1   
     6    1    7 1   
     7    1    8 1   
     8    2    9 1   
     9    2   10 1   
    10    4   11 1   
    11    4   12 1   
    12    5   13 1   
    13    5   14 1   
    14    5   15 1   
@<TRIPOS>SUBSTRUCTURE
     1 MOL         1 TEMP              0 ****  ****    0 ROOT
