@<TRIPOS>MOLECULE
(2S)-2-chlorobutane
   14    13     1     0     0
SMALL
No Charge or Current Charge


@<TRIPOS>ATOM
      1 C1          0.7300    0.2080    1.7970 c3        1 MOL     -0.095900
      2 C2          0.4930    0.4910    0.3190 c3        1 MOL     -0.086300
      3 C3         -0.4820   -0.4900   -0.3420 c3        1 MOL      0.064000
      4 H1         -0.0930   -1.5110   -0.2660 h1        1 MOL      0.069100
      5 C4         -0.6970   -0.1460   -1.8110 c3        1 MOL     -0.105000
      6 Cl1        -2.0690   -0.4790    0.4860 cl        1 MOL     -0.211700
      7 H2          1.4330    0.9390    2.2100 hc        1 MOL      0.040600
      8 H3          1.1570   -0.7870    1.9560 hc        1 MOL      0.040600
      9 H4         -0.2030    0.2790    2.3640 hc        1 MOL      0.040600
     10 H5          1.4550    0.4870   -0.2080 hc        1 MOL      0.050300
     11 H6          0.0910    1.5080    0.2300 hc        1 MOL      0.050300
     12 H7         -1.3940   -0.8480   -2.2820 hc        1 MOL      0.047800
     13 H8         -1.1210    0.8590   -1.9140 hc        1 MOL      0.047800
     14 H9          0.2430   -0.1730   -2.3730 hc        1 MOL      0.047800
@<TRIPOS>BOND
     1    1    2 1   
     2    2    3 1   
     3    3    4 1   
     4    3    5 1   
     5    3    6 1   
     6    1    7 1   
     7    1    8 1   
     8    1    9 1   
     9    2   10 1   
    10    2   11 1   
    11    5   12 1   
    12    5   13 1   
    13    5   14 1   
@<TRIPOS>SUBSTRUCTURE
     1 MOL         1 TEMP              0 ****  ****    0 ROOT
