@<TRIPOS>MOLECULE
2-methoxy-4-methyl-phenol
   20    20     1     0     0
SMALL
No Charge or Current Charge


@<TRIPOS>ATOM
      1 C1          1.9310   -1.0160   -1.6030 c3        1 MOL     -0.051400
      2 C2          1.8850   -1.0360   -0.1120 ca        1 MOL     -0.080600
      3 C3          2.9210   -1.6310    0.6080 ca        1 MOL     -0.125200
      4 C4          2.8780   -1.6520    2.0020 ca        1 MOL     -0.132900
      5 C5          1.8000   -1.0790    2.6760 ca        1 MOL      0.106100
      6 C6          0.7640   -0.4840    1.9550 ca        1 MOL      0.046500
      7 C7          0.8070   -0.4630    0.5610 ca        1 MOL     -0.164600
      8 O1         -0.2940    0.0800    2.6010 os        1 MOL     -0.348400
      9 C8         -1.3110    0.6660    1.7910 c3        1 MOL      0.121800
     10 O2          1.7690   -1.1060    4.0370 oh        1 MOL     -0.497100
     11 H1          2.4390   -0.1100   -1.9490 hc        1 MOL      0.043300
     12 H2          2.4650   -1.8900   -1.9900 hc        1 MOL      0.043300
     13 H3          0.9210   -1.0390   -2.0260 hc        1 MOL      0.043300
     14 H4          3.7650   -2.0810    0.0920 ha        1 MOL      0.135900
     15 H5          3.6890   -2.1160    2.5580 ha        1 MOL      0.152300
     16 H6         -0.0020    0.0000    0.0020 ha        1 MOL      0.138300
     17 H7         -2.0870    1.0750    2.4370 h1        1 MOL      0.045000
     18 H8         -1.7230   -0.0960    1.1310 h1        1 MOL      0.045000
     19 H9         -0.8640    1.4640    1.2000 h1        1 MOL      0.045000
     20 H10         0.9650   -0.6730    4.3630 ho        1 MOL      0.434400
@<TRIPOS>BOND
     1    1    2 1   
     2    2    7 ar  
     3    2    3 ar  
     4    3    4 ar  
     5    4    5 ar  
     6    5    6 ar  
     7    6    7 ar  
     8    6    8 1   
     9    8    9 1   
    10    5   10 1   
    11    1   11 1   
    12    1   12 1   
    13    1   13 1   
    14    3   14 1   
    15    4   15 1   
    16    7   16 1   
    17    9   17 1   
    18    9   18 1   
    19    9   19 1   
    20   10   20 1   
@<TRIPOS>SUBSTRUCTURE
     1 MOL         1 TEMP              0 ****  ****    0 ROOT
