@<TRIPOS>MOLECULE
pentanoic acid
   17    16     0     0     0
SMALL
USER_CHARGES

@<TRIPOS>ATOM
      1 C1         -2.8895   -0.8643    1.4434 C.3       1 MOL        -0.0918
      2 C2         -1.4435   -0.4115    1.5738 C.3       1 MOL        -0.0885
      3 C3         -0.6037   -1.3074    2.4860 C.3       1 MOL        -0.0766
      4 C4          0.8489   -0.8488    2.6143 C.3       1 MOL        -0.1800
      5 C5          1.6476   -1.7566    3.5220 C.2       1 MOL         0.6244
      6 O1          1.2145   -2.7447    4.0982 O.2       1 MOL        -0.4888
      7 O2          2.9384   -1.3446    3.6245 O.3       1 MOL        -0.5819
      8 H1         -3.4369   -0.1861    0.7809 H         1 MOL         0.0363
      9 H2         -2.9584   -1.8695    1.0177 H         1 MOL         0.0363
     10 H3         -3.3905   -0.8646    2.4166 H         1 MOL         0.0363
     11 H4         -1.4328    0.6065    1.9813 H         1 MOL         0.0498
     12 H5         -0.9866   -0.3589    0.5787 H         1 MOL         0.0498
     13 H6         -1.0685   -1.3182    3.4801 H         1 MOL         0.0460
     14 H7         -0.6356   -2.3414    2.1203 H         1 MOL         0.0460
     15 H8          0.8782    0.1635    3.0324 H         1 MOL         0.0797
     16 H9          1.3340   -0.8485    1.6329 H         1 MOL         0.0797
     17 H10         3.1569   -0.5370    3.1117 H         1 MOL         0.4234
@<TRIPOS>BOND
     1    1    2 1
     2    2    3 1
     3    3    4 1
     4    4    5 1
     5    5    6 2
     6    5    7 1
     7    1    8 1
     8    1    9 1
     9    1   10 1
    10    2   11 1
    11    2   12 1
    12    3   13 1
    13    3   14 1
    14    4   15 1
    15    4   16 1
    16    7   17 1
