@<TRIPOS>MOLECULE
1,2-dihydroacenaphthylene
   22    24     0     0     0
SMALL
USER_CHARGES

@<TRIPOS>ATOM
      1 C1          5.8396   -0.4217    0.1828 C.ar      1 MOL        -0.1223
      2 C2          4.6656    0.2964   -0.1182 C.ar      1 MOL        -0.1195
      3 C3          3.4054   -0.2823    0.1219 C.ar      1 MOL        -0.0207
      4 C4          2.1388    0.2832   -0.1157 C.ar      1 MOL        -0.1195
      5 C5          0.9730   -0.4472    0.1877 C.ar      1 MOL        -0.1223
      6 C6          1.0452   -1.7419    0.7281 C.ar      1 MOL        -0.1217
      7 C7          2.2914   -2.2975    0.9613 C.ar      1 MOL        -0.0708
      8 C8          3.4127   -1.5710    0.6597 C.ar      1 MOL        -0.0633
      9 C9          4.5422   -2.2856    0.9594 C.ar      1 MOL        -0.0708
     10 C10         5.7819   -1.7171    0.7233 C.ar      1 MOL        -0.1217
     11 C11         4.2011   -3.6339    1.5210 C.3       1 MOL        -0.0333
     12 C12         2.6477   -3.6418    1.5232 C.3       1 MOL        -0.0333
     13 H1          6.8072    0.0357   -0.0073 H         1 MOL         0.1295
     14 H2          4.7430    1.2967   -0.5359 H         1 MOL         0.1316
     15 H3          2.0501    1.2828   -0.5328 H         1 MOL         0.1316
     16 H4          0.0003    0.0002   -0.0002 H         1 MOL         0.1295
     17 H5          0.1370   -2.2904    0.9561 H         1 MOL         0.1341
     18 H6          6.6963   -2.2563    0.9491 H         1 MOL         0.1341
     19 H7          4.5931   -4.4362    0.8876 H         1 MOL         0.0573
     20 H8          4.5916   -3.7482    2.5374 H         1 MOL         0.0573
     21 H9          2.2624   -4.4483    0.8910 H         1 MOL         0.0573
     22 H10         2.2609   -3.7597    2.5406 H         1 MOL         0.0573
@<TRIPOS>BOND
     1    1   10 ar
     2    1    2 ar
     3    2    3 ar
     4    3    8 ar
     5    3    4 ar
     6    4    5 ar
     7    5    6 ar
     8    6    7 ar
     9    7   12 1
    10    7    8 ar
    11    8    9 ar
    12    9   10 ar
    13    9   11 1
    14   11   12 1
    15    1   13 1
    16    2   14 1
    17    4   15 1
    18    5   16 1
    19    6   17 1
    20   10   18 1
    21   11   19 1
    22   11   20 1
    23   12   21 1
    24   12   22 1
