@<TRIPOS>MOLECULE
hex-1-ene
   18    17     0     0     0
SMALL
USER_CHARGES

@<TRIPOS>ATOM
      1 C1         -1.0511    2.6150    5.4664 C.3       1 MOL        -0.0928
      2 C2         -1.0224    2.7714    3.9544 C.3       1 MOL        -0.0793
      3 C3          0.0871    1.9285    3.3247 C.3       1 MOL        -0.0719
      4 C4          0.1112    2.0898    1.8034 C.3       1 MOL        -0.0549
      5 C5          1.1995    1.2630    1.1850 C.2       1 MOL        -0.1589
      6 C6          0.9849    0.2958    0.2863 C.2       1 MOL        -0.2260
      7 H1         -1.8478    3.2215    5.9087 H         1 MOL         0.0321
      8 H2         -0.0988    2.9374    5.8989 H         1 MOL         0.0321
      9 H3         -1.2165    1.5706    5.7496 H         1 MOL         0.0321
     10 H4         -1.9944    2.4742    3.5438 H         1 MOL         0.0408
     11 H5         -0.8740    3.8285    3.7051 H         1 MOL         0.0408
     12 H6          1.0559    2.2258    3.7459 H         1 MOL         0.0391
     13 H7         -0.0638    0.8726    3.5831 H         1 MOL         0.0391
     14 H8         -0.8667    1.8172    1.3881 H         1 MOL         0.0453
     15 H9          0.2846    3.1411    1.5442 H         1 MOL         0.0453
     16 H10         2.2219    1.4778    1.4851 H         1 MOL         0.1166
     17 H11         1.8168   -0.2635   -0.1275 H         1 MOL         0.1102
     18 H12        -0.0150    0.0450   -0.0499 H         1 MOL         0.1102
@<TRIPOS>BOND
     1    1    2 1
     2    2    3 1
     3    3    4 1
     4    4    5 1
     5    5    6 2
     6    1    7 1
     7    1    8 1
     8    1    9 1
     9    2   10 1
    10    2   11 1
    11    3   12 1
    12    3   13 1
    13    4   14 1
    14    4   15 1
    15    5   16 1
    16    6   17 1
    17    6   18 1
