@<TRIPOS>MOLECULE
(2Z)-3,7-dimethylocta-2,6-dien-1-ol
   29    28     0     0     0
SMALL
USER_CHARGES

@<TRIPOS>ATOM
      1 C1         -6.1485   -0.6681    5.1834 C.3       1 MOL        -0.0610
      2 C2         -5.0693   -1.0547    4.2073 C.2       1 MOL        -0.1115
      3 C3         -4.9014   -0.3570    3.0681 C.2       1 MOL        -0.1778
      4 C4         -3.8947   -0.5912    1.9759 C.3       1 MOL        -0.0418
      5 C5         -2.9673    0.6120    1.7607 C.3       1 MOL        -0.0452
      6 C6         -1.9422    0.4040    0.6655 C.2       1 MOL        -0.0959
      7 C7         -0.7127   -0.1152    0.8503 C.2       1 MOL        -0.1745
      8 C8         -0.0965   -0.5886    2.1282 C.3       1 MOL         0.1637
      9 O1          1.0762    0.1752    2.3760 O.3       1 MOL        -0.5972
     10 C9         -2.3697    0.8589   -0.7066 C.3       1 MOL        -0.0651
     11 C10        -4.2400   -2.2315    4.6362 C.3       1 MOL        -0.0610
     12 H1         -7.0784   -1.1965    4.9487 H         1 MOL         0.0408
     13 H2         -5.8825   -0.9091    6.2179 H         1 MOL         0.0408
     14 H3         -6.3375    0.4091    5.1320 H         1 MOL         0.0408
     15 H4         -5.5668    0.4857    2.8831 H         1 MOL         0.1178
     16 H5         -3.3117   -1.5025    2.1353 H         1 MOL         0.0476
     17 H6         -4.4550   -0.7649    1.0481 H         1 MOL         0.0476
     18 H7         -3.5813    1.4832    1.4962 H         1 MOL         0.0494
     19 H8         -2.4907    0.8877    2.7079 H         1 MOL         0.0494
     20 H9         -0.0732   -0.2369   -0.0233 H         1 MOL         0.1331
     21 H10         0.1909   -1.6399    2.0243 H         1 MOL         0.0262
     22 H11        -0.7546   -0.4999    2.9942 H         1 MOL         0.0262
     23 H12         1.4534   -0.1528    3.2083 H         1 MOL         0.3972
     24 H13        -2.0875    1.9051   -0.8638 H         1 MOL         0.0428
     25 H14        -3.4540    0.7703   -0.8224 H         1 MOL         0.0428
     26 H15        -1.9054    0.2696   -1.5045 H         1 MOL         0.0428
     27 H16        -4.6887   -3.1606    4.2696 H         1 MOL         0.0408
     28 H17        -3.2108   -2.1978    4.2746 H         1 MOL         0.0408
     29 H18        -4.1945   -2.2794    5.7295 H         1 MOL         0.0408
@<TRIPOS>BOND
     1    1    2 1
     2    2    3 2
     3    3    4 1
     4    4    5 1
     5    5    6 1
     6    6    7 2
     7    7    8 1
     8    8    9 1
     9    6   10 1
    10    2   11 1
    11    1   12 1
    12    1   13 1
    13    1   14 1
    14    3   15 1
    15    4   16 1
    16    4   17 1
    17    5   18 1
    18    5   19 1
    19    7   20 1
    20    8   21 1
    21    8   22 1
    22    9   23 1
    23   10   24 1
    24   10   25 1
    25   10   26 1
    26   11   27 1
    27   11   28 1
    28   11   29 1
