@<TRIPOS>MOLECULE
cumene
   21    21     0     0     0
SMALL
USER_CHARGES

@<TRIPOS>ATOM
      1 C1          2.6353    0.2404   -2.1257 C.3       1 MOL        -0.0879
      2 C2          1.9309   -1.0140   -1.6029 C.3       1 MOL        -0.0264
      3 C3          0.5326   -1.1476   -2.2112 C.3       1 MOL        -0.0879
      4 C4          1.8851   -1.0363   -0.1124 C.ar      1 MOL        -0.0719
      5 C5          2.9210   -1.6309    0.6081 C.ar      1 MOL        -0.1277
      6 C6          2.8783   -1.6520    2.0022 C.ar      1 MOL        -0.1291
      7 C7          1.7997   -1.0786    2.6757 C.ar      1 MOL        -0.1339
      8 C8          0.7638   -0.4841    1.9551 C.ar      1 MOL        -0.1291
      9 C9          0.8066   -0.4630    0.5610 C.ar      1 MOL        -0.1277
     10 H1          3.6389    0.3540   -1.7015 H         1 MOL         0.0365
     11 H2          2.0626    1.1383   -1.8692 H         1 MOL         0.0365
     12 H3          2.7357    0.2071   -3.2163 H         1 MOL         0.0365
     13 H4          2.5149   -1.8778   -1.9473 H         1 MOL         0.0503
     14 H5          0.0273   -2.0452   -1.8377 H         1 MOL         0.0365
     15 H6          0.5937   -1.2268   -3.3021 H         1 MOL         0.0365
     16 H7         -0.1009   -0.2853   -1.9759 H         1 MOL         0.0365
     17 H8          3.7649   -2.0803    0.0915 H         1 MOL         0.1318
     18 H9          3.6850   -2.1148    2.5632 H         1 MOL         0.1294
     19 H10         1.7662   -1.0949    3.7611 H         1 MOL         0.1298
     20 H11        -0.0762   -0.0382    2.4794 H         1 MOL         0.1294
     21 H12        -0.0050    0.0028    0.0083 H         1 MOL         0.1318
@<TRIPOS>BOND
     1    1    2 1
     2    2    3 1
     3    2    4 1
     4    4    9 ar
     5    4    5 ar
     6    5    6 ar
     7    6    7 ar
     8    7    8 ar
     9    8    9 ar
    10    1   10 1
    11    1   11 1
    12    1   12 1
    13    2   13 1
    14    3   14 1
    15    3   15 1
    16    3   16 1
    17    5   17 1
    18    6   18 1
    19    7   19 1
    20    8   20 1
    21    9   21 1
