@<TRIPOS>MOLECULE
fluoromethane
    5     4     0     0     0
SMALL
USER_CHARGES

@<TRIPOS>ATOM
      1 C1          0.0349   -0.0344   -0.0359 C.3       1 MOL         0.1482
      2 F1         -0.7453    0.7337    0.7652 F         1 MOL        -0.2502
      3 H1          0.8200    0.5912   -0.4654 H         1 MOL         0.0340
      4 H2          0.4757   -0.8328    0.5646 H         1 MOL         0.0340
      5 H3         -0.5853   -0.4577   -0.8285 H         1 MOL         0.0340
@<TRIPOS>BOND
     1    1    2 1
     2    1    3 1
     3    1    4 1
     4    1    5 1
