@<TRIPOS>MOLECULE
1,4-diaminoanthracene-9,10-dione
   28    30     0     0     0
SMALL
USER_CHARGES

@<TRIPOS>ATOM
      1 C1          1.2904   -1.6865   -0.3516 C.ar      1 MOL        -0.1206
      2 C2          0.9563   -0.4630    0.2256 C.ar      1 MOL        -0.1205
      3 C3          1.8484    0.1684    1.0928 C.ar      1 MOL        -0.0875
      4 C4          3.0812   -0.4277    1.3842 C.ar      1 MOL        -0.1261
      5 C5          3.4160   -1.6538    0.8057 C.ar      1 MOL        -0.1261
      6 C6          2.5179   -2.2839   -0.0640 C.ar      1 MOL        -0.0875
      7 C7          4.7134   -2.2938    1.1043 C.2       1 MOL         0.5993
      8 O1          4.9714   -3.3693    0.5787 O.2       1 MOL        -0.5741
      9 C8          5.6516   -1.6180    2.0237 C.ar      1 MOL        -0.1771
     10 C9          6.8845   -2.2140    2.3149 C.ar      1 MOL         0.1857
     11 C10         7.7766   -1.5826    3.1822 C.ar      1 MOL        -0.1429
     12 C11         7.4425   -0.3591    3.7594 C.ar      1 MOL        -0.1429
     13 C12         6.2150    0.2382    3.4720 C.ar      1 MOL         0.1857
     14 C13         5.3168   -0.3919    2.6022 C.ar      1 MOL        -0.1771
     15 C14         4.0194    0.2481    2.3036 C.2       1 MOL         0.5993
     16 O2          3.6908    1.3216    2.7926 O.2       1 MOL        -0.5741
     17 N1          5.9471    1.4793    4.0940 N.pl3     1 MOL        -0.8388
     18 N2          7.2936   -3.4518    1.7678 N.pl3     1 MOL        -0.8388
     19 H1          0.5938   -2.1759   -1.0262 H         1 MOL         0.1387
     20 H2          0.0006    0.0006   -0.0008 H         1 MOL         0.1387
     21 H3          1.5625    1.1218    1.5289 H         1 MOL         0.1604
     22 H4          2.7513   -3.2384   -0.5281 H         1 MOL         0.1604
     23 H5          8.7375   -2.0343    3.4167 H         1 MOL         0.1381
     24 H6          8.1494    0.1196    4.4331 H         1 MOL         0.1381
     25 H7          6.6115    1.8510    4.7396 H         1 MOL         0.4225
     26 H8          5.0594    1.9123    3.9483 H         1 MOL         0.4225
     27 H9          6.6619   -3.9542    1.1803 H         1 MOL         0.4225
     28 H10         8.1662   -3.8432    2.0544 H         1 MOL         0.4225
@<TRIPOS>BOND
     1    1    6 ar
     2    1    2 ar
     3    2    3 ar
     4    3    4 ar
     5    4   15 1
     6    4    5 ar
     7    5    6 ar
     8    5    7 1
     9    7    8 2
    10    7    9 1
    11    9   14 ar
    12    9   10 ar
    13   10   11 ar
    14   11   12 ar
    15   12   13 ar
    16   13   14 ar
    17   14   15 1
    18   15   16 2
    19   13   17 1
    20   10   18 1
    21    1   19 1
    22    2   20 1
    23    3   21 1
    24    6   22 1
    25   11   23 1
    26   12   24 1
    27   17   25 1
    28   17   26 1
    29   18   27 1
    30   18   28 1
