@<TRIPOS>MOLECULE
1,4-dimethylnaphthalene
   24    25     0     0     0
SMALL
USER_CHARGES

@<TRIPOS>ATOM
      1 C1         -1.0093   -4.3879    1.0441 C.3       1 MOL        -0.0555
      2 C2         -0.0479   -3.3542    0.5448 C.ar      1 MOL        -0.0684
      3 C3         -0.4966   -2.0341    0.4940 C.ar      1 MOL        -0.1289
      4 C4          0.3500   -1.0275    0.0392 C.ar      1 MOL        -0.1289
      5 C5          1.6484   -1.3369   -0.3665 C.ar      1 MOL        -0.0684
      6 C6          2.1168   -2.6602   -0.3222 C.ar      1 MOL        -0.0267
      7 C7          1.2560   -3.6839    0.1403 C.ar      1 MOL        -0.0267
      8 C8          1.7243   -5.0072    0.1848 C.ar      1 MOL        -0.1193
      9 C9          3.0228   -5.3167   -0.2210 C.ar      1 MOL        -0.1296
     10 C10         3.8693   -4.3100   -0.6758 C.ar      1 MOL        -0.1296
     11 C11         3.4207   -2.9899   -0.7267 C.ar      1 MOL        -0.1193
     12 C12         2.5059   -0.2062   -0.8445 C.3       1 MOL        -0.0554
     13 H1         -0.9137   -4.4953    2.1289 H         1 MOL         0.0447
     14 H2         -2.0412   -4.1098    0.8054 H         1 MOL         0.0447
     15 H3         -0.8186   -5.3585    0.5740 H         1 MOL         0.0447
     16 H4         -1.5060   -1.7803    0.8075 H         1 MOL         0.1310
     17 H5         -0.0110   -0.0028    0.0040 H         1 MOL         0.1310
     18 H6          1.0935   -5.8214    0.5338 H         1 MOL         0.1322
     19 H7          3.3728   -6.3442   -0.1820 H         1 MOL         0.1310
     20 H8          4.8799   -4.5521   -0.9918 H         1 MOL         0.1310
     21 H9          4.1118   -2.2318   -1.0876 H         1 MOL         0.1322
     22 H10         3.0572    0.2287   -0.0046 H         1 MOL         0.0447
     23 H11         3.2237   -0.5493   -1.5978 H         1 MOL         0.0447
     24 H12         1.8982    0.5770   -1.3112 H         1 MOL         0.0447
@<TRIPOS>BOND
     1    1    2 1
     2    2    7 ar
     3    2    3 ar
     4    3    4 ar
     5    4    5 ar
     6    5    6 ar
     7    6   11 ar
     8    6    7 ar
     9    7    8 ar
    10    8    9 ar
    11    9   10 ar
    12   10   11 ar
    13    5   12 1
    14    1   13 1
    15    1   14 1
    16    1   15 1
    17    3   16 1
    18    4   17 1
    19    8   18 1
    20    9   19 1
    21   10   20 1
    22   11   21 1
    23   12   22 1
    24   12   23 1
    25   12   24 1
