@<TRIPOS>MOLECULE
ethyl acetate
   14    13     0     0     0
SMALL
USER_CHARGES

@<TRIPOS>ATOM
      1 C1         -1.8914    1.8641   -3.7227 C.3       1 MOL        -0.0998
      2 C2         -2.5898    0.8104   -2.8899 C.3       1 MOL         0.1353
      3 O1         -1.9187    0.6904   -1.6316 O.3       1 MOL        -0.4417
      4 C3         -2.4436   -0.2296   -0.7731 C.2       1 MOL         0.6307
      5 O2         -3.4150   -0.9444   -0.9795 O.2       1 MOL        -0.5441
      6 C4         -1.6440   -0.2458    0.4943 C.3       1 MOL        -0.1513
      7 H1         -2.3805    1.9813   -4.6938 H         1 MOL         0.0474
      8 H2         -1.8953    2.8295   -3.2061 H         1 MOL         0.0474
      9 H3         -0.8426    1.5946   -3.8856 H         1 MOL         0.0474
     10 H4         -2.5639   -0.1588   -3.3969 H         1 MOL         0.0507
     11 H5         -3.6313    1.0923   -2.7085 H         1 MOL         0.0507
     12 H6         -2.0610    0.4718    1.2052 H         1 MOL         0.0758
     13 H7         -0.5992   -0.0101    0.2768 H         1 MOL         0.0758
     14 H8         -1.6897   -1.2441    0.9392 H         1 MOL         0.0758
@<TRIPOS>BOND
     1    1    2 1
     2    2    3 1
     3    3    4 1
     4    4    5 2
     5    4    6 1
     6    1    7 1
     7    1    8 1
     8    1    9 1
     9    2   10 1
    10    2   11 1
    11    6   12 1
    12    6   13 1
    13    6   14 1
