@<TRIPOS>MOLECULE
1,3,5-trichlorobenzene
   12    12     0     0     0
SMALL
USER_CHARGES

@<TRIPOS>ATOM
      1 C1          1.8851   -1.0363   -0.1124 C.ar      1 MOL        -0.1223
      2 C2          2.9210   -1.6309    0.6081 C.ar      1 MOL         0.0315
      3 C3          2.8783   -1.6520    2.0022 C.ar      1 MOL        -0.1222
      4 C4          1.7997   -1.0786    2.6757 C.ar      1 MOL         0.0315
      5 C5          0.7638   -0.4841    1.9551 C.ar      1 MOL        -0.1222
      6 C6          0.8066   -0.4630    0.5610 C.ar      1 MOL         0.0315
      7 Cl1        -0.4710    0.2711   -0.3284 Cl        1 MOL        -0.0741
      8 Cl2         1.7471   -1.1052    4.3957 Cl        1 MOL        -0.0741
      9 Cl3         4.2525   -2.3376   -0.2223 Cl        1 MOL        -0.0741
     10 H1          1.9177   -1.0202   -1.1999 H         1 MOL         0.1649
     11 H2          3.6864   -2.1158    2.5642 H         1 MOL         0.1649
     12 H3         -0.0777   -0.0368    2.4802 H         1 MOL         0.1649
@<TRIPOS>BOND
     1    1    6 ar
     2    1    2 ar
     3    2    3 ar
     4    3    4 ar
     5    4    5 ar
     6    5    6 ar
     7    6    7 1
     8    4    8 1
     9    2    9 1
    10    1   10 1
    11    3   11 1
    12    5   12 1
