@<TRIPOS>MOLECULE
methyl 2-cyanoacetate
   12    11     0     0     0
SMALL
USER_CHARGES

@<TRIPOS>ATOM
      1 C1         -0.9283    0.5693    0.0840 C.3       1 MOL         0.1282
      2 O1         -1.2500    0.7975    1.4599 O.3       1 MOL        -0.4454
      3 C2         -1.4583   -0.3259    2.2102 C.2       1 MOL         0.6312
      4 O2         -1.3922   -1.4787    1.8052 O.2       1 MOL        -0.5112
      5 C3         -1.7831    0.0874    3.6246 C.3       1 MOL        -0.0658
      6 C4         -2.0211   -1.0690    4.4962 C.1       1 MOL         0.2081
      7 N1         -2.2105   -1.9807    5.1886 N.1       1 MOL        -0.3333
      8 H1         -0.7828    1.5275   -0.4207 H         1 MOL         0.0552
      9 H2         -1.7391    0.0133   -0.3934 H         1 MOL         0.0552
     10 H3         -0.0061   -0.0138    0.0265 H         1 MOL         0.0552
     11 H4         -2.6775    0.7189    3.6028 H         1 MOL         0.1112
     12 H5         -0.9439    0.6735    4.0138 H         1 MOL         0.1112
@<TRIPOS>BOND
     1    1    2 1
     2    2    3 1
     3    3    4 2
     4    3    5 1
     5    5    6 1
     6    6    7 3
     7    1    8 1
     8    1    9 1
     9    1   10 1
    10    5   11 1
    11    5   12 1
