@<TRIPOS>MOLECULE
4-methylmorpholine
   18    18     0     0     0
SMALL
USER_CHARGES

@<TRIPOS>ATOM
      1 C1          0.9621   -2.0406   -1.4116 C.3       1 MOL         0.1488
      2 N1          0.2058   -0.8932   -1.9086 N.3       1 MOL        -0.7126
      3 C2         -1.2153   -1.2330   -2.0646 C.3       1 MOL         0.1223
      4 C3         -1.9854   -0.0174   -2.5727 C.3       1 MOL         0.1272
      5 O1         -1.8315    1.0804   -1.6724 O.3       1 MOL        -0.4170
      6 C4         -0.4555    1.4387   -1.5394 C.3       1 MOL         0.1272
      7 C5          0.3521    0.2583   -1.0073 C.3       1 MOL         0.1223
      8 H1          0.8454   -2.8899   -2.0899 H         1 MOL         0.0342
      9 H2          0.6024   -2.3299   -0.4205 H         1 MOL         0.0342
     10 H3          2.0241   -1.7909   -1.3398 H         1 MOL         0.0342
     11 H4         -1.3338   -2.0534   -2.7816 H         1 MOL         0.0413
     12 H5         -1.6368   -1.5566   -1.1039 H         1 MOL         0.0413
     13 H6         -1.6549    0.2822   -3.5749 H         1 MOL         0.0536
     14 H7         -3.0532   -0.2507   -2.6328 H         1 MOL         0.0536
     15 H8         -0.0726    1.7872   -2.5061 H         1 MOL         0.0536
     16 H9         -0.3956    2.2767   -0.8374 H         1 MOL         0.0536
     17 H10         1.4056    0.5516   -0.9335 H         1 MOL         0.0413
     18 H11        -0.0006   -0.0002   -0.0003 H         1 MOL         0.0413
@<TRIPOS>BOND
     1    1    2 1
     2    2    7 1
     3    2    3 1
     4    3    4 1
     5    4    5 1
     6    5    6 1
     7    6    7 1
     8    1    8 1
     9    1    9 1
    10    1   10 1
    11    3   11 1
    12    3   12 1
    13    4   13 1
    14    4   14 1
    15    6   15 1
    16    6   16 1
    17    7   17 1
    18    7   18 1
