@<TRIPOS>MOLECULE
3-phenylpropan-1-ol
   22    22     0     0     0
SMALL
USER_CHARGES

@<TRIPOS>ATOM
      1 C1          1.8851   -1.0363   -0.1124 C.ar      1 MOL        -0.1315
      2 C2          2.9210   -1.6309    0.6081 C.ar      1 MOL        -0.1282
      3 C3          2.8783   -1.6520    2.0022 C.ar      1 MOL        -0.1262
      4 C4          1.7997   -1.0786    2.6757 C.ar      1 MOL        -0.0783
      5 C5          0.7638   -0.4841    1.9551 C.ar      1 MOL        -0.1262
      6 C6          0.8066   -0.4630    0.5610 C.ar      1 MOL        -0.1282
      7 C7          1.7548   -1.1014    4.1663 C.3       1 MOL        -0.0351
      8 C8          1.0506   -2.3549    4.7037 C.3       1 MOL        -0.0816
      9 C9          1.0038   -2.3798    6.2252 C.3       1 MOL         0.1318
     10 O1          0.3405   -3.5640    6.6451 O.3       1 MOL        -0.6012
     11 H1          1.9176   -1.0210   -1.1980 H         1 MOL         0.1303
     12 H2          3.7604   -2.0783    0.0841 H         1 MOL         0.1309
     13 H3          3.6899   -2.1173    2.5553 H         1 MOL         0.1305
     14 H4         -0.0804   -0.0348    2.4713 H         1 MOL         0.1305
     15 H5         -0.0006   -0.0010    0.0001 H         1 MOL         0.1309
     16 H6          1.2389   -0.2055    4.5518 H         1 MOL         0.0464
     17 H7          2.7745   -1.0540    4.5849 H         1 MOL         0.0464
     18 H8          1.5565   -3.2595    4.3416 H         1 MOL         0.0600
     19 H9          0.0280   -2.4148    4.3083 H         1 MOL         0.0600
     20 H10         2.0140   -2.3785    6.6471 H         1 MOL         0.0201
     21 H11         0.4539   -1.5164    6.6131 H         1 MOL         0.0201
     22 H12         0.3276   -3.5492    7.6159 H         1 MOL         0.3986
@<TRIPOS>BOND
     1    1    6 ar
     2    1    2 ar
     3    2    3 ar
     4    3    4 ar
     5    4    5 ar
     6    5    6 ar
     7    4    7 1
     8    7    8 1
     9    8    9 1
    10    9   10 1
    11    1   11 1
    12    2   12 1
    13    3   13 1
    14    5   14 1
    15    6   15 1
    16    7   16 1
    17    7   17 1
    18    8   18 1
    19    8   19 1
    20    9   20 1
    21    9   21 1
    22   10   22 1
