@<TRIPOS>MOLECULE
3,5-dimethylphenol
   19    19     0     0     0
SMALL
USER_CHARGES

@<TRIPOS>ATOM
      1 C1          1.9304   -1.0128   -1.6029 C.3       1 MOL        -0.0563
      2 C2          1.8851   -1.0363   -0.1124 C.ar      1 MOL        -0.0377
      3 C3          2.9210   -1.6309    0.6081 C.ar      1 MOL        -0.1670
      4 C4          2.8783   -1.6520    2.0022 C.ar      1 MOL        -0.0377
      5 C5          1.7997   -1.0786    2.6757 C.ar      1 MOL        -0.1918
      6 C6          0.7638   -0.4841    1.9551 C.ar      1 MOL         0.1305
      7 C7          0.8066   -0.4630    0.5610 C.ar      1 MOL        -0.1918
      8 O1         -0.2880    0.0763    2.6126 O.3       1 MOL        -0.5007
      9 C8          3.9862   -2.2873    2.7723 C.3       1 MOL        -0.0563
     10 H1          2.4383   -0.1071   -1.9478 H         1 MOL         0.0460
     11 H2          2.4628   -1.8872   -1.9916 H         1 MOL         0.0460
     12 H3          0.9201   -1.0349   -2.0250 H         1 MOL         0.0460
     13 H4          3.7619   -2.0777    0.0830 H         1 MOL         0.1331
     14 H5          1.7632   -1.0932    3.7622 H         1 MOL         0.1407
     15 H6         -0.0019    0.0017    0.0016 H         1 MOL         0.1407
     16 H7         -0.9224    0.4464    1.9783 H         1 MOL         0.4184
     17 H8          4.7661   -1.5499    2.9984 H         1 MOL         0.0460
     18 H9          3.6228   -2.7103    3.7178 H         1 MOL         0.0460
     19 H10         4.4407   -3.1128    2.2091 H         1 MOL         0.0460
@<TRIPOS>BOND
     1    1    2 1
     2    2    7 ar
     3    2    3 ar
     4    3    4 ar
     5    4    5 ar
     6    5    6 ar
     7    6    7 ar
     8    6    8 1
     9    4    9 1
    10    1   10 1
    11    1   11 1
    12    1   12 1
    13    3   13 1
    14    5   14 1
    15    7   15 1
    16    8   16 1
    17    9   17 1
    18    9   18 1
    19    9   19 1
