@<TRIPOS>MOLECULE
N,N-dimethylformamide
   12    11     0     0     0
SMALL
USER_CHARGES

@<TRIPOS>ATOM
      1 C1          0.9686   -0.0549   -0.5592 C.3       1 MOL         0.0827
      2 N1          1.5475   -1.3611   -0.2934 N.am      1 MOL        -0.4976
      3 C2          0.7832   -2.5563   -0.6072 C.3       1 MOL         0.0827
      4 C3          2.8174   -1.4425    0.2543 C.2       1 MOL         0.6579
      5 O1          3.5583   -0.5153    0.5614 O.2       1 MOL        -0.6016
      6 H1          0.4131    0.2948    0.3149 H         1 MOL         0.0414
      7 H2          0.2856   -0.1105   -1.4112 H         1 MOL         0.0414
      8 H3          1.7562    0.6681   -0.7881 H         1 MOL         0.0414
      9 H4          0.9997   -2.8644   -1.6277 H         1 MOL         0.0414
     10 H5         -0.2792   -2.3431   -0.5086 H         1 MOL         0.0414
     11 H6          1.0587   -3.3533    0.0802 H         1 MOL         0.0414
     12 H7          3.1358   -2.4872    0.4042 H         1 MOL         0.0273
@<TRIPOS>BOND
     1    1    2 1
     2    2    3 1
     3    2    4 am
     4    4    5 2
     5    1    6 1
     6    1    7 1
     7    1    8 1
     8    3    9 1
     9    3   10 1
    10    3   11 1
    11    4   12 1
