@<TRIPOS>MOLECULE
2-chloro-2-methyl-propane
   14    13     0     0     0
SMALL
USER_CHARGES

@<TRIPOS>ATOM
      1 C1          0.7749    0.2118   -0.7456 C.3       1 MOL        -0.0990
      2 C2          0.5635    1.5787   -1.3987 C.3       1 MOL         0.0800
      3 C3         -0.8097    1.6428   -2.0696 C.3       1 MOL        -0.0990
      4 C4          1.6695    1.8600   -2.4175 C.3       1 MOL        -0.0990
      5 Cl1         0.6327    2.8393   -0.1192 Cl        1 MOL        -0.2149
      6 H1          1.7551    0.1473   -0.2591 H         1 MOL         0.0480
      7 H2          0.0105    0.0078    0.0129 H         1 MOL         0.0480
      8 H3          0.7226   -0.5901   -1.4905 H         1 MOL         0.0480
      9 H4         -0.9788    2.6166   -2.5436 H         1 MOL         0.0480
     10 H5         -0.9151    0.8719   -2.8415 H         1 MOL         0.0480
     11 H6         -1.6108    1.4885   -1.3379 H         1 MOL         0.0480
     12 H7          1.5341    2.8365   -2.8961 H         1 MOL         0.0480
     13 H8          1.6895    1.1002   -3.2070 H         1 MOL         0.0480
     14 H9          2.6542    1.8619   -1.9363 H         1 MOL         0.0480
@<TRIPOS>BOND
     1    1    2 1
     2    2    3 1
     3    2    4 1
     4    2    5 1
     5    1    6 1
     6    1    7 1
     7    1    8 1
     8    3    9 1
     9    3   10 1
    10    3   11 1
    11    4   12 1
    12    4   13 1
    13    4   14 1
