@<TRIPOS>MOLECULE
methyl propanoate
   14    13     0     0     0
SMALL
USER_CHARGES

@<TRIPOS>ATOM
      1 C1         -0.8719    0.5457    0.3733 C.3       1 MOL        -0.0926
      2 C2         -0.8823    0.5514    1.8920 C.3       1 MOL        -0.1297
      3 C3         -2.0715    1.2977    2.4497 C.2       1 MOL         0.6296
      4 O1         -2.9390    1.8427    1.7813 O.2       1 MOL        -0.5363
      5 O2         -2.0152    1.2623    3.8143 O.3       1 MOL        -0.4462
      6 C4         -3.0823    1.9328    4.4926 C.3       1 MOL         0.1255
      7 H1         -0.0038    0.0009   -0.0122 H         1 MOL         0.0479
      8 H2         -1.7764    0.0655   -0.0124 H         1 MOL         0.0479
      9 H3         -0.8300    1.5656   -0.0233 H         1 MOL         0.0479
     10 H4          0.0313    1.0312    2.2588 H         1 MOL         0.0778
     11 H5         -0.9178   -0.4803    2.2576 H         1 MOL         0.0778
     12 H6         -2.9297    1.8370    5.5652 H         1 MOL         0.0501
     13 H7         -4.0255    1.4804    4.1940 H         1 MOL         0.0501
     14 H8         -3.0626    2.9814    4.2045 H         1 MOL         0.0501
@<TRIPOS>BOND
     1    1    2 1
     2    2    3 1
     3    3    4 2
     4    3    5 1
     5    5    6 1
     6    1    7 1
     7    1    8 1
     8    1    9 1
     9    2   10 1
    10    2   11 1
    11    6   12 1
    12    6   13 1
    13    6   14 1
