@<TRIPOS>MOLECULE
ethyl butanoate
   20    19     0     0     0
SMALL
USER_CHARGES

@<TRIPOS>ATOM
      1 C1         -0.3785   -0.6982    0.7531 C.3       1 MOL        -0.1000
      2 C2          0.4050   -0.5787    2.0501 C.3       1 MOL        -0.0756
      3 C3          1.8852   -0.8881    1.8405 C.3       1 MOL        -0.1263
      4 C4          2.6749   -0.7723    3.1243 C.2       1 MOL         0.6326
      5 O1          2.2096   -0.4689    4.2142 O.2       1 MOL        -0.5436
      6 O2          3.9847   -1.0619    2.8650 O.3       1 MOL        -0.4454
      7 C5          4.8650   -0.9953    3.9916 C.3       1 MOL         0.1382
      8 C6          6.2615   -1.3408    3.5324 C.3       1 MOL        -0.1003
      9 H1         -1.4355   -0.4725    0.9264 H         1 MOL         0.0391
     10 H2         -0.0006    0.0012    0.0005 H         1 MOL         0.0391
     11 H3         -0.3102   -1.7121    0.3458 H         1 MOL         0.0391
     12 H4         -0.0189   -1.2648    2.7932 H         1 MOL         0.0537
     13 H5          0.2875    0.4347    2.4522 H         1 MOL         0.0537
     14 H6          2.3099   -0.1867    1.1135 H         1 MOL         0.0760
     15 H7          1.9989   -1.9095    1.4604 H         1 MOL         0.0760
     16 H8          4.8254    0.0167    4.3957 H         1 MOL         0.0508
     17 H9          4.5131   -1.7041    4.7417 H         1 MOL         0.0508
     18 H10         6.9616   -1.2992    4.3715 H         1 MOL         0.0474
     19 H11         6.2913   -2.3448    3.0965 H         1 MOL         0.0474
     20 H12         6.5993   -0.6465    2.7558 H         1 MOL         0.0474
@<TRIPOS>BOND
     1    1    2 1
     2    2    3 1
     3    3    4 1
     4    4    5 2
     5    4    6 1
     6    6    7 1
     7    7    8 1
     8    1    9 1
     9    1   10 1
    10    1   11 1
    11    2   12 1
    12    2   13 1
    13    3   14 1
    14    3   15 1
    15    7   16 1
    16    7   17 1
    17    8   18 1
    18    8   19 1
    19    8   20 1
