@<TRIPOS>MOLECULE
pent-1-ene
   15    14     0     0     0
SMALL
USER_CHARGES

@<TRIPOS>ATOM
      1 C1          4.2249   -3.9908   -0.0063 C.3       1 MOL        -0.0930
      2 C2          3.2901   -2.9173   -0.5418 C.3       1 MOL        -0.0766
      3 C3          1.9937   -2.8514    0.2660 C.3       1 MOL        -0.0540
      4 C4          1.0744   -1.7916   -0.2651 C.2       1 MOL        -0.1624
      5 C5          0.6443   -0.7470    0.4513 C.2       1 MOL        -0.2238
      6 H1          5.1504   -4.0319   -0.5896 H         1 MOL         0.0333
      7 H2          3.7450   -4.9730   -0.0616 H         1 MOL         0.0333
      8 H3          4.4853   -3.7982    1.0393 H         1 MOL         0.0333
      9 H4          3.8022   -1.9479   -0.5099 H         1 MOL         0.0406
     10 H5          3.0682   -3.1292   -1.5949 H         1 MOL         0.0406
     11 H6          2.2264   -2.6698    1.3225 H         1 MOL         0.0450
     12 H7          1.4756   -3.8166    0.2164 H         1 MOL         0.0450
     13 H8          0.7353   -1.8935   -1.2928 H         1 MOL         0.1176
     14 H9         -0.0209   -0.0028    0.0273 H         1 MOL         0.1106
     15 H10         0.9551   -0.6233    1.4829 H         1 MOL         0.1106
@<TRIPOS>BOND
     1    1    2 1
     2    2    3 1
     3    3    4 1
     4    4    5 2
     5    1    6 1
     6    1    7 1
     7    1    8 1
     8    2    9 1
     9    2   10 1
    10    3   11 1
    11    3   12 1
    12    4   13 1
    13    5   14 1
    14    5   15 1
