@<TRIPOS>MOLECULE
(E)-1,2-dichloroethylene
    6     5     0     0     0
SMALL
USER_CHARGES

@<TRIPOS>ATOM
      1 C1         -0.6314    0.0855   -0.1906 C.2       1 MOL        -0.0701
      2 C2          0.6316   -0.0857    0.1906 C.2       1 MOL        -0.0700
      3 Cl1         1.2348    0.5015    1.6820 Cl        1 MOL        -0.0949
      4 Cl2        -1.2353   -0.5005   -1.6824 Cl        1 MOL        -0.0949
      5 H1         -1.3859    0.6000    0.3893 H         1 MOL         0.1650
      6 H2          1.3862   -0.6008   -0.3889 H         1 MOL         0.1650
@<TRIPOS>BOND
     1    1    2 2
     2    2    3 1
     3    1    4 1
     4    1    5 1
     5    2    6 1
