@<TRIPOS>MOLECULE
diethyl propanedioate
   23    22     0     0     0
SMALL
USER_CHARGES

@<TRIPOS>ATOM
      1 C1          0.5991   -0.5115    1.9485 C.3       1 MOL        -0.1249
      2 C2          0.0978   -0.9061    0.5756 C.3       1 MOL         0.1357
      3 O1         -1.1706   -1.5555    0.7113 O.3       1 MOL        -0.4464
      4 C3         -1.7484   -1.9701   -0.4566 C.2       1 MOL         0.6444
      5 O2         -1.2746   -1.8308   -1.5752 O.2       1 MOL        -0.5099
      6 C4         -3.0694   -2.6259   -0.1356 C.3       1 MOL        -0.1905
      7 C5         -3.8574   -3.1506   -1.3112 C.2       1 MOL         0.6444
      8 O3         -3.5161   -3.0877   -2.4836 O.2       1 MOL        -0.5099
      9 O4         -5.0151   -3.7106   -0.8470 O.3       1 MOL        -0.4464
     10 C6         -5.8786   -4.2610   -1.8470 C.3       1 MOL         0.1357
     11 C7         -7.0997   -4.8328   -1.1671 C.3       1 MOL        -0.1249
     12 H1          1.5692   -0.0114    1.8807 H         1 MOL         0.0502
     13 H2         -0.1116    0.1605    2.4405 H         1 MOL         0.0502
     14 H3          0.7002   -1.3930    2.5903 H         1 MOL         0.0502
     15 H4          0.7976   -1.5964    0.0953 H         1 MOL         0.0652
     16 H5         -0.0248   -0.0220   -0.0571 H         1 MOL         0.0652
     17 H6         -2.8659   -3.4727    0.5293 H         1 MOL         0.1154
     18 H7         -3.6913   -1.8821    0.3751 H         1 MOL         0.1154
     19 H8         -6.1531   -3.4627   -2.5372 H         1 MOL         0.0652
     20 H9         -5.3296   -5.0363   -2.3823 H         1 MOL         0.0652
     21 H10        -7.7826   -5.2629   -1.9051 H         1 MOL         0.0502
     22 H11        -6.8181   -5.6111   -0.4502 H         1 MOL         0.0502
     23 H12        -7.6306   -4.0582   -0.6038 H         1 MOL         0.0502
@<TRIPOS>BOND
     1    1    2 1
     2    2    3 1
     3    3    4 1
     4    4    5 2
     5    4    6 1
     6    6    7 1
     7    7    8 2
     8    7    9 1
     9    9   10 1
    10   10   11 1
    11    1   12 1
    12    1   13 1
    13    1   14 1
    14    2   15 1
    15    2   16 1
    16    6   17 1
    17    6   18 1
    18   10   19 1
    19   10   20 1
    20   11   21 1
    21   11   22 1
    22   11   23 1
