@<TRIPOS>MOLECULE
1,3-dimethylnaphthalene
   24    25     0     0     0
SMALL
USER_CHARGES

@<TRIPOS>ATOM
      1 C1         -1.8848   -1.7025    0.9273 C.3       1 MOL        -0.0543
      2 C2         -0.4966   -2.0341    0.4940 C.ar      1 MOL        -0.0704
      3 C3          0.3500   -1.0275    0.0392 C.ar      1 MOL        -0.1296
      4 C4          1.6484   -1.3369   -0.3665 C.ar      1 MOL        -0.0607
      5 C5          2.1168   -2.6602   -0.3222 C.ar      1 MOL        -0.0346
      6 C6          3.4207   -2.9899   -0.7267 C.ar      1 MOL        -0.1173
      7 C7          3.8693   -4.3100   -0.6758 C.ar      1 MOL        -0.1312
      8 C8          3.0228   -5.3167   -0.2210 C.ar      1 MOL        -0.1270
      9 C9          1.7243   -5.0072    0.1848 C.ar      1 MOL        -0.1196
     10 C10         1.2560   -3.6839    0.1403 C.ar      1 MOL        -0.0292
     11 C11        -0.0479   -3.3542    0.5448 C.ar      1 MOL        -0.1272
     12 C12         2.5066   -0.2068   -0.8451 C.3       1 MOL        -0.0566
     13 H1         -1.8975   -1.4682    1.9961 H         1 MOL         0.0443
     14 H2         -2.2728   -0.8424    0.3716 H         1 MOL         0.0443
     15 H3         -2.5635   -2.5415    0.7405 H         1 MOL         0.0443
     16 H4         -0.0029    0.0006    0.0006 H         1 MOL         0.1320
     17 H5          4.1116   -2.2322   -1.0880 H         1 MOL         0.1318
     18 H6          4.8801   -4.5520   -0.9910 H         1 MOL         0.1311
     19 H7          3.3727   -6.3441   -0.1816 H         1 MOL         0.1312
     20 H8          1.0799   -5.8099    0.5371 H         1 MOL         0.1311
     21 H9         -0.7208   -4.1317    0.9025 H         1 MOL         0.1317
     22 H10         3.0580    0.2281   -0.0053 H         1 MOL         0.0453
     23 H11         3.2241   -0.5508   -1.5982 H         1 MOL         0.0453
     24 H12         1.8993    0.5763   -1.3122 H         1 MOL         0.0453
@<TRIPOS>BOND
     1    1    2 1
     2    2   11 ar
     3    2    3 ar
     4    3    4 ar
     5    4    5 ar
     6    5   10 ar
     7    5    6 ar
     8    6    7 ar
     9    7    8 ar
    10    8    9 ar
    11    9   10 ar
    12   10   11 ar
    13    4   12 1
    14    1   13 1
    15    1   14 1
    16    1   15 1
    17    3   16 1
    18    6   17 1
    19    7   18 1
    20    8   19 1
    21    9   20 1
    22   11   21 1
    23   12   22 1
    24   12   23 1
    25   12   24 1
