@<TRIPOS>MOLECULE
(2E)-3,7-dimethylocta-2,6-dien-1-ol
   29    28     0     0     0
SMALL
USER_CHARGES

@<TRIPOS>ATOM
      1 C1         -6.1485   -0.6681    5.1834 C.3       1 MOL        -0.0607
      2 C2         -5.0693   -1.0547    4.2073 C.2       1 MOL        -0.1119
      3 C3         -4.9014   -0.3570    3.0681 C.2       1 MOL        -0.1777
      4 C4         -3.8947   -0.5912    1.9759 C.3       1 MOL        -0.0441
      5 C5         -2.9673    0.6120    1.7607 C.3       1 MOL        -0.0445
      6 C6         -1.9422    0.4040    0.6655 C.2       1 MOL        -0.0959
      7 C7         -1.8342    1.1634   -0.4423 C.2       1 MOL        -0.1752
      8 C8         -0.8538    1.0219   -1.5628 C.3       1 MOL         0.1646
      9 O1         -0.0929    2.2190   -1.6529 O.3       1 MOL        -0.5955
     10 C9         -1.0219   -0.7731    0.8649 C.3       1 MOL        -0.0657
     11 C10        -4.2400   -2.2315    4.6362 C.3       1 MOL        -0.0607
     12 H1         -7.0784   -1.1965    4.9487 H         1 MOL         0.0408
     13 H2         -5.8825   -0.9091    6.2179 H         1 MOL         0.0408
     14 H3         -6.3375    0.4091    5.1320 H         1 MOL         0.0408
     15 H4         -5.5668    0.4857    2.8831 H         1 MOL         0.1174
     16 H5         -3.3117   -1.5025    2.1353 H         1 MOL         0.0476
     17 H6         -4.4550   -0.7649    1.0481 H         1 MOL         0.0476
     18 H7         -3.5813    1.4832    1.4962 H         1 MOL         0.0503
     19 H8         -2.4907    0.8877    2.7079 H         1 MOL         0.0503
     20 H9         -2.5484    1.9752   -0.5764 H         1 MOL         0.1335
     21 H10        -1.3962    0.8850   -2.5039 H         1 MOL         0.0242
     22 H11        -0.1648    0.1842   -1.4423 H         1 MOL         0.0242
     23 H12         0.5326    2.0988   -2.3856 H         1 MOL         0.3978
     24 H13        -1.4520   -1.6716    0.4104 H         1 MOL         0.0432
     25 H14        -0.8646   -0.9641    1.9307 H         1 MOL         0.0432
     26 H15        -0.0377   -0.6140    0.4114 H         1 MOL         0.0432
     27 H16        -4.6887   -3.1606    4.2696 H         1 MOL         0.0408
     28 H17        -3.2108   -2.1978    4.2746 H         1 MOL         0.0408
     29 H18        -4.1945   -2.2794    5.7295 H         1 MOL         0.0408
@<TRIPOS>BOND
     1    1    2 1
     2    2    3 2
     3    3    4 1
     4    4    5 1
     5    5    6 1
     6    6    7 2
     7    7    8 1
     8    8    9 1
     9    6   10 1
    10    2   11 1
    11    1   12 1
    12    1   13 1
    13    1   14 1
    14    3   15 1
    15    4   16 1
    16    4   17 1
    17    5   18 1
    18    5   19 1
    19    7   20 1
    20    8   21 1
    21    8   22 1
    22    9   23 1
    23   10   24 1
    24   10   25 1
    25   10   26 1
    26   11   27 1
    27   11   28 1
    28   11   29 1
