@<TRIPOS>MOLECULE
2,3,7,8-tetrachlorodibenzo-p-dioxin
   22    24     0     0     0
SMALL
USER_CHARGES

@<TRIPOS>ATOM
      1 C1         -1.4367   -1.5819    0.2693 C.ar      1 MOL        -0.1064
      2 C2         -2.7266   -1.9051    0.6889 C.ar      1 MOL         0.0709
      3 C3         -3.5799   -0.9097    1.1626 C.ar      1 MOL         0.0709
      4 C4         -3.1487    0.4152    1.2196 C.ar      1 MOL        -0.1063
      5 C5         -1.8584    0.7400    0.8000 C.ar      1 MOL         0.0201
      6 C6         -1.0039   -0.2568    0.3257 C.ar      1 MOL         0.0201
      7 Cl1         0.6047    0.0878   -0.2067 Cl        1 MOL        -0.0530
      8 Cl2        -1.3752    2.3976    0.8945 Cl        1 MOL        -0.0530
      9 O1         -4.8561   -1.1828    1.5855 O.3       1 MOL        -0.2128
     10 C7         -5.2389   -2.4982    1.5123 C.ar      1 MOL         0.0709
     11 C8         -6.5287   -2.8214    1.9320 C.ar      1 MOL        -0.1063
     12 C9         -6.9616   -4.1465    1.8755 C.ar      1 MOL         0.0201
     13 C10        -6.1071   -5.1433    1.4010 C.ar      1 MOL         0.0201
     14 C11        -4.8168   -4.8184    0.9815 C.ar      1 MOL        -0.1063
     15 C12        -4.3856   -3.4936    1.0385 C.ar      1 MOL         0.0709
     16 O2         -3.1093   -3.2205    0.6157 O.3       1 MOL        -0.2128
     17 Cl3        -6.5903   -6.8009    1.3092 Cl        1 MOL        -0.0530
     18 Cl4        -8.5702   -4.4909    2.4077 Cl        1 MOL        -0.0530
     19 H1         -0.7789   -2.3666   -0.0973 H         1 MOL         0.1748
     20 H2         -3.8221    1.1837    1.5917 H         1 MOL         0.1748
     21 H3         -7.1865   -2.0380    2.3011 H         1 MOL         0.1748
     22 H4         -4.1439   -5.5876    0.6099 H         1 MOL         0.1748
@<TRIPOS>BOND
     1    1    6 ar
     2    1    2 ar
     3    2   16 1
     4    2    3 ar
     5    3    4 ar
     6    4    5 ar
     7    5    6 ar
     8    6    7 1
     9    5    8 1
    10    3    9 1
    11    9   10 1
    12   10   15 ar
    13   10   11 ar
    14   11   12 ar
    15   12   13 ar
    16   13   14 ar
    17   14   15 ar
    18   15   16 1
    19   13   17 1
    20   12   18 1
    21    1   19 1
    22    4   20 1
    23   11   21 1
    24   14   22 1
