@<TRIPOS>MOLECULE
5-fluoro-1H-pyrimidine-2,4-dione
   12    12     0     0     0
SMALL
USER_CHARGES

@<TRIPOS>ATOM
      1 C1          0.6610    1.3814   -0.0454 C.2       1 MOL        -0.0021
      2 C2         -0.2001    0.9155    0.8573 C.2       1 MOL        -0.0267
      3 C3         -0.7437   -0.4518    0.7476 C.2       1 MOL         0.7009
      4 O1         -1.5372   -0.8927    1.5724 O.2       1 MOL        -0.5764
      5 N1         -0.2730   -1.1575   -0.3544 N.am      1 MOL        -0.5821
      6 C4          0.6325   -0.6865   -1.3140 C.2       1 MOL         0.8035
      7 O2          1.0071   -1.3718   -2.2663 O.2       1 MOL        -0.6266
      8 N2          1.0723    0.6151   -1.1019 N.am      1 MOL        -0.4606
      9 F1         -0.6189    1.6484    1.9046 F         1 MOL        -0.1290
     10 H1          1.0776    2.3791    0.0083 H         1 MOL         0.1768
     11 H2         -0.6179   -2.1056   -0.4760 H         1 MOL         0.3598
     12 H3          1.7313    1.0249   -1.7571 H         1 MOL         0.3623
@<TRIPOS>BOND
     1    1    8 1
     2    1    2 2
     3    2    3 1
     4    3    4 2
     5    3    5 am
     6    5    6 am
     7    6    7 2
     8    6    8 am
     9    2    9 1
    10    1   10 1
    11    5   11 1
    12    8   12 1
