@<TRIPOS>MOLECULE
bromomethane
    5     4     0     0     0
SMALL
USER_CHARGES

@<TRIPOS>ATOM
      1 C1          0.1359   -0.1000   -0.0729 C.3       1 MOL        -0.0394
      2 Br1        -1.2946    0.9519    0.6956 Br        1 MOL        -0.1679
      3 H1          0.8158    0.5792   -0.5895 H         1 MOL         0.0691
      4 H2          0.6483   -0.6190    0.7385 H         1 MOL         0.0691
      5 H3         -0.3055   -0.8121   -0.7717 H         1 MOL         0.0691
@<TRIPOS>BOND
     1    1    2 1
     2    1    3 1
     3    1    4 1
     4    1    5 1
