@<TRIPOS>MOLECULE
1,2,3,4-tetrachloro-5-(2,3,4-trichlorophenyl)benzene
   22    23     0     0     0
SMALL
USER_CHARGES

@<TRIPOS>ATOM
      1 C1          1.8851   -1.0363   -0.1124 C.ar      1 MOL        -0.0915
      2 C2          2.9210   -1.6309    0.6081 C.ar      1 MOL        -0.1207
      3 C3          2.8783   -1.6520    2.0022 C.ar      1 MOL         0.0309
      4 C4          1.7997   -1.0786    2.6757 C.ar      1 MOL         0.0131
      5 C5          0.7638   -0.4841    1.9551 C.ar      1 MOL         0.0442
      6 C6          0.8066   -0.4630    0.5610 C.ar      1 MOL        -0.0397
      7 C7         -0.2436    0.1419   -0.2383 C.ar      1 MOL        -0.0258
      8 C8         -0.1170    1.4930   -0.5611 C.ar      1 MOL        -0.0924
      9 C9         -1.0984    2.1220   -1.3272 C.ar      1 MOL         0.0185
     10 C10        -2.2065    1.3999   -1.7704 C.ar      1 MOL         0.0278
     11 C11        -2.3331    0.0488   -1.4474 C.ar      1 MOL         0.0188
     12 C12        -1.3517   -0.5802   -0.6814 C.ar      1 MOL         0.0401
     13 Cl1        -1.4918   -2.2652   -0.2632 Cl        1 MOL        -0.0413
     14 Cl2        -3.7167   -0.8546   -1.9993 Cl        1 MOL        -0.0352
     15 Cl3        -3.4233    2.1985   -2.7252 Cl        1 MOL        -0.0332
     16 Cl4        -0.8687    3.7993   -1.6883 Cl        1 MOL        -0.0511
     17 Cl5        -0.5910    0.2368    2.7779 Cl        1 MOL        -0.0467
     18 Cl6         1.7570   -1.1109    4.4150 Cl        1 MOL        -0.0394
     19 Cl7         4.2004   -2.4076    2.8246 Cl        1 MOL        -0.0555
     20 H1          1.9356   -1.0293   -1.1989 H         1 MOL         0.1548
     21 H2          3.7536   -2.0727    0.0662 H         1 MOL         0.1582
     22 H3          0.7493    2.0559   -0.2175 H         1 MOL         0.1660
@<TRIPOS>BOND
     1    1    6 ar
     2    1    2 ar
     3    2    3 ar
     4    3    4 ar
     5    4    5 ar
     6    5    6 ar
     7    6    7 1
     8    7   12 ar
     9    7    8 ar
    10    8    9 ar
    11    9   10 ar
    12   10   11 ar
    13   11   12 ar
    14   12   13 1
    15   11   14 1
    16   10   15 1
    17    9   16 1
    18    5   17 1
    19    4   18 1
    20    3   19 1
    21    1   20 1
    22    2   21 1
    23    8   22 1
