@<TRIPOS>MOLECULE
1-methylpyrrole
   13    13     0     0     0
SMALL
USER_CHARGES

@<TRIPOS>ATOM
      1 C1         -0.2315   -0.5271    4.5817 C.3       1 MOL         0.0236
      2 N1          0.2315   -0.2133    3.2493 N.pl3     1 MOL        -0.0689
      3 C2         -0.4888   -0.3990    2.0983 C.2       1 MOL        -0.1648
      4 C3          0.2891    0.0196    1.0414 C.2       1 MOL        -0.1965
      5 C4          1.5204    0.4727    1.5759 C.2       1 MOL        -0.1965
      6 C5          1.4575    0.3171    2.9431 C.2       1 MOL        -0.1648
      7 H1         -0.7320    0.3585    4.9821 H         1 MOL         0.0481
      8 H2         -0.9255   -1.3709    4.5368 H         1 MOL         0.0481
      9 H3          0.6236   -0.7996    5.2066 H         1 MOL         0.0481
     10 H4         -1.4887   -0.8111    2.1251 H         1 MOL         0.1622
     11 H5          0.0001    0.0001    0.0000 H         1 MOL         0.1496
     12 H6          2.3615    0.8702    1.0255 H         1 MOL         0.1496
     13 H7          2.1795    0.5395    3.7174 H         1 MOL         0.1622
@<TRIPOS>BOND
     1    1    2 1
     2    2    6 1
     3    2    3 1
     4    3    4 2
     5    4    5 1
     6    5    6 2
     7    1    7 1
     8    1    8 1
     9    1    9 1
    10    3   10 1
    11    4   11 1
    12    5   12 1
    13    6   13 1
