@<TRIPOS>MOLECULE
ethyl pentanoate
   23    22     0     0     0
SMALL
USER_CHARGES

@<TRIPOS>ATOM
      1 C1         -0.5100    0.9085    0.3409 C.3       1 MOL        -0.0973
      2 C2         -0.5734    0.9583    1.8590 C.3       1 MOL        -0.0790
      3 C3          0.8236    0.9589    2.4780 C.3       1 MOL        -0.0774
      4 C4          0.7559    1.0090    4.0034 C.3       1 MOL        -0.1321
      5 C5          2.1308    1.0102    4.6318 C.2       1 MOL         0.6333
      6 O1          3.1878    0.9758    4.0169 O.2       1 MOL        -0.5379
      7 O2          1.9955    1.0540    5.9906 O.3       1 MOL        -0.4482
      8 C6          3.2195    1.0589    6.7322 C.3       1 MOL         0.1357
      9 C7          2.8900    1.1091    8.2051 C.3       1 MOL        -0.1290
     10 H1         -1.5145    0.9084   -0.0941 H         1 MOL         0.0353
     11 H2          0.0370    1.7691   -0.0570 H         1 MOL         0.0353
     12 H3          0.0026   -0.0010    0.0126 H         1 MOL         0.0353
     13 H4         -1.1179    1.8586    2.1671 H         1 MOL         0.0445
     14 H5         -1.1420    0.0947    2.2233 H         1 MOL         0.0445
     15 H6          1.3931    1.8197    2.1053 H         1 MOL         0.0532
     16 H7          1.3685    0.0605    2.1617 H         1 MOL         0.0532
     17 H8          0.2103    0.1356    4.3781 H         1 MOL         0.0788
     18 H9          0.2347    1.9194    4.3202 H         1 MOL         0.0788
     19 H10         3.7712    0.1512    6.4856 H         1 MOL         0.0650
     20 H11         3.7975    1.9329    6.4306 H         1 MOL         0.0650
     21 H12         3.8060    1.1140    8.8024 H         1 MOL         0.0477
     22 H13         2.3073    2.0048    8.4439 H         1 MOL         0.0477
     23 H14         2.2820    0.2466    8.4979 H         1 MOL         0.0477
@<TRIPOS>BOND
     1    1    2 1
     2    2    3 1
     3    3    4 1
     4    4    5 1
     5    5    6 2
     6    5    7 1
     7    7    8 1
     8    8    9 1
     9    1   10 1
    10    1   11 1
    11    1   12 1
    12    2   13 1
    13    2   14 1
    14    3   15 1
    15    3   16 1
    16    4   17 1
    17    4   18 1
    18    8   19 1
    19    8   20 1
    20    9   21 1
    21    9   22 1
    22    9   23 1
