@<TRIPOS>MOLECULE
2-nitroaniline
   16    16     0     0     0
SMALL
USER_CHARGES

@<TRIPOS>ATOM
      1 C1          1.8851   -1.0363   -0.1124 C.ar      1 MOL        -0.0591
      2 C2          2.9210   -1.6309    0.6081 C.ar      1 MOL        -0.1778
      3 C3          2.8783   -1.6520    2.0022 C.ar      1 MOL        -0.0442
      4 C4          1.7997   -1.0786    2.6757 C.ar      1 MOL        -0.2284
      5 C5          0.7638   -0.4841    1.9551 C.ar      1 MOL         0.2175
      6 C6          0.8066   -0.4630    0.5610 C.ar      1 MOL        -0.2028
      7 N1         -0.3405    0.1029    2.6135 N.pl3     1 MOL        -0.8360
      8 N2          1.7811   -1.1145    4.0982 N.pl3     1 MOL         0.3093
      9 O1          1.2435   -2.0905    4.6717 O.2       1 MOL        -0.2021
     10 O2          2.3029   -0.1688    4.7339 O.3       1 MOL        -0.2021
     11 H1          1.9181   -1.0200   -1.1980 H         1 MOL         0.1417
     12 H2          3.7615   -2.0758    0.0836 H         1 MOL         0.1458
     13 H3          3.6930   -2.1193    2.5502 H         1 MOL         0.1547
     14 H4          0.0042   -0.0044   -0.0115 H         1 MOL         0.1434
     15 H5         -1.0414    0.5615    2.0700 H         1 MOL         0.4200
     16 H6         -0.3510    0.1305    3.6116 H         1 MOL         0.4200
@<TRIPOS>BOND
     1    1    6 ar
     2    1    2 ar
     3    2    3 ar
     4    3    4 ar
     5    4    5 ar
     6    5    6 ar
     7    5    7 1
     8    4    8 1
     9    8    9 2
    10    8   10 1
    11    1   11 1
    12    2   12 1
    13    3   13 1
    14    6   14 1
    15    7   15 1
    16    7   16 1
