@<TRIPOS>MOLECULE
1,4-benzoquinone
   12    12     0     0     0
SMALL
USER_CHARGES

@<TRIPOS>ATOM
      1 C1         -0.7272    1.1740    0.3642 C.2       1 MOL        -0.1816
      2 C2          0.5407    1.0753    0.7688 C.2       1 MOL        -0.1816
      3 C3          1.3629   -0.1061    0.4349 C.2       1 MOL         0.5321
      4 O1          2.5276   -0.1969    0.8069 O.2       1 MOL        -0.4911
      5 C4          0.7273   -1.1739   -0.3643 C.2       1 MOL        -0.1816
      6 C5         -0.5407   -1.0753   -0.7688 C.2       1 MOL        -0.1816
      7 C6         -1.3630    0.1061   -0.4349 C.2       1 MOL         0.5321
      8 O2         -2.5277    0.1969   -0.8067 O.2       1 MOL        -0.4911
      9 H1         -1.3263    2.0429    0.6122 H         1 MOL         0.1611
     10 H2          1.0024    1.8616    1.3554 H         1 MOL         0.1611
     11 H3          1.3259   -2.0438   -0.6108 H         1 MOL         0.1611
     12 H4         -1.0023   -1.8614   -1.3557 H         1 MOL         0.1611
@<TRIPOS>BOND
     1    1    7 1
     2    1    2 2
     3    2    3 1
     4    3    4 2
     5    3    5 1
     6    5    6 2
     7    6    7 1
     8    7    8 2
     9    1    9 1
    10    2   10 1
    11    5   11 1
    12    6   12 1
