@<TRIPOS>MOLECULE
methyl cyclohexanecarboxylate
   24    24     0     0     0
SMALL
USER_CHARGES

@<TRIPOS>ATOM
      1 C1          0.5122    0.8257    1.2899 C.3       1 MOL         0.1259
      2 O1          0.2960   -0.4208    0.6208 O.3       1 MOL        -0.4461
      3 C2          0.7296   -0.4754   -0.6707 C.2       1 MOL         0.6320
      4 O2          1.2743    0.4266   -1.2927 O.2       1 MOL        -0.5386
      5 C3          0.4389   -1.8334   -1.2408 C.3       1 MOL        -0.1009
      6 C4          1.0887   -2.9170   -0.3777 C.3       1 MOL        -0.0711
      7 C5          2.5978   -3.0262   -0.5898 C.3       1 MOL        -0.0806
      8 C6          2.9486   -3.1872   -2.0644 C.3       1 MOL        -0.0780
      9 C7          2.3702   -2.0527   -2.9021 C.3       1 MOL        -0.0806
     10 C8          0.8603   -1.9147   -2.7094 C.3       1 MOL        -0.0711
     11 H1          0.1306    0.7625    2.3119 H         1 MOL         0.0487
     12 H2          0.0009    1.6249    0.7474 H         1 MOL         0.0487
     13 H3          1.5844    1.0338    1.3160 H         1 MOL         0.0487
     14 H4         -0.6504   -1.9512   -1.1799 H         1 MOL         0.0780
     15 H5          0.8872   -2.7313    0.6843 H         1 MOL         0.0532
     16 H6          0.6300   -3.8836   -0.6225 H         1 MOL         0.0532
     17 H7          3.0980   -2.1374   -0.1875 H         1 MOL         0.0479
     18 H8          2.9829   -3.8843   -0.0269 H         1 MOL         0.0479
     19 H9          4.0376   -3.2147   -2.1833 H         1 MOL         0.0402
     20 H10         2.5626   -4.1465   -2.4306 H         1 MOL         0.0402
     21 H11         2.8627   -1.1113   -2.6301 H         1 MOL         0.0479
     22 H12         2.5895   -2.2283   -3.9615 H         1 MOL         0.0479
     23 H13         0.5073   -1.0336   -3.2590 H         1 MOL         0.0532
     24 H14         0.3717   -2.7858   -3.1648 H         1 MOL         0.0532
@<TRIPOS>BOND
     1    1    2 1
     2    2    3 1
     3    3    4 2
     4    3    5 1
     5    5   10 1
     6    5    6 1
     7    6    7 1
     8    7    8 1
     9    8    9 1
    10    9   10 1
    11    1   11 1
    12    1   12 1
    13    1   13 1
    14    5   14 1
    15    6   15 1
    16    6   16 1
    17    7   17 1
    18    7   18 1
    19    8   19 1
    20    8   20 1
    21    9   21 1
    22    9   22 1
    23   10   23 1
    24   10   24 1
