@<TRIPOS>MOLECULE
aniline
   14    14     0     0     0
SMALL
USER_CHARGES

@<TRIPOS>ATOM
      1 C1          1.8851   -1.0363   -0.1124 C.ar      1 MOL        -0.1729
      2 C2          2.9210   -1.6309    0.6081 C.ar      1 MOL        -0.0935
      3 C3          2.8783   -1.6520    2.0022 C.ar      1 MOL        -0.1898
      4 C4          1.7997   -1.0786    2.6757 C.ar      1 MOL         0.1356
      5 C5          0.7638   -0.4841    1.9551 C.ar      1 MOL        -0.1898
      6 C6          0.8066   -0.4630    0.5610 C.ar      1 MOL        -0.0935
      7 N1          1.7568   -1.1003    4.0852 N.pl3     1 MOL        -0.8176
      8 H1          1.9184   -1.0196   -1.1980 H         1 MOL         0.1298
      9 H2          3.7609   -2.0773    0.0835 H         1 MOL         0.1293
     10 H3          3.6911   -2.1183    2.5532 H         1 MOL         0.1304
     11 H4         -0.0810   -0.0346    2.4703 H         1 MOL         0.1304
     12 H5          0.0003   -0.0001   -0.0001 H         1 MOL         0.1293
     13 H6          1.0022   -0.6448    4.5574 H         1 MOL         0.3863
     14 H7          2.5279   -1.4875    4.5907 H         1 MOL         0.3863
@<TRIPOS>BOND
     1    1    6 ar
     2    1    2 ar
     3    2    3 ar
     4    3    4 ar
     5    4    5 ar
     6    5    6 ar
     7    4    7 1
     8    1    8 1
     9    2    9 1
    10    3   10 1
    11    5   11 1
    12    6   12 1
    13    7   13 1
    14    7   14 1
