@<TRIPOS>MOLECULE
4-tert-butylphenol
   25    25     0     0     0
SMALL
USER_CHARGES

@<TRIPOS>ATOM
      1 C1         -1.0055    0.0255   -0.4341 C.3       1 MOL        -0.0859
      2 C2         -2.0904    0.3299    0.6216 C.3       1 MOL        -0.0055
      3 C3         -1.7775    1.6835    1.2954 C.3       1 MOL        -0.0859
      4 C4         -3.4286    0.4950   -0.1338 C.3       1 MOL        -0.0859
      5 C5         -2.1077   -0.7840    1.6815 C.ar      1 MOL        -0.0982
      6 C6         -3.2653   -1.5350    1.8859 C.ar      1 MOL        -0.0927
      7 C7         -3.2810   -2.5441    2.8487 C.ar      1 MOL        -0.1847
      8 C8         -2.1392   -2.8023    3.6072 C.ar      1 MOL         0.1200
      9 C9         -0.9816   -2.0513    3.4027 C.ar      1 MOL        -0.1847
     10 C10        -0.9659   -1.0422    2.4399 C.ar      1 MOL        -0.0927
     11 O1         -2.1548   -3.7864    4.5473 O.3       1 MOL        -0.4992
     12 H1         -1.1973   -0.9314   -0.9335 H         1 MOL         0.0365
     13 H2         -0.9617    0.7913   -1.2163 H         1 MOL         0.0365
     14 H3         -0.0121   -0.0317    0.0264 H         1 MOL         0.0365
     15 H4         -2.5193    1.9491    2.0564 H         1 MOL         0.0365
     16 H5         -0.8014    1.6605    1.7942 H         1 MOL         0.0365
     17 H6         -1.7566    2.4953    0.5588 H         1 MOL         0.0365
     18 H7         -4.2493    0.7145    0.5597 H         1 MOL         0.0365
     19 H8         -3.3865    1.3206   -0.8538 H         1 MOL         0.0365
     20 H9         -3.7011   -0.4179   -0.6762 H         1 MOL         0.0365
     21 H10        -4.1592   -1.3415    1.2988 H         1 MOL         0.1341
     22 H11        -4.1858   -3.1260    3.0033 H         1 MOL         0.1401
     23 H12        -0.0888   -2.2479    3.9904 H         1 MOL         0.1401
     24 H13        -0.0592   -0.4628    2.2868 H         1 MOL         0.1341
     25 H14        -1.2921   -3.8441    4.9882 H         1 MOL         0.4180
@<TRIPOS>BOND
     1    1    2 1
     2    2    3 1
     3    2    4 1
     4    2    5 1
     5    5   10 ar
     6    5    6 ar
     7    6    7 ar
     8    7    8 ar
     9    8    9 ar
    10    9   10 ar
    11    8   11 1
    12    1   12 1
    13    1   13 1
    14    1   14 1
    15    3   15 1
    16    3   16 1
    17    3   17 1
    18    4   18 1
    19    4   19 1
    20    4   20 1
    21    6   21 1
    22    7   22 1
    23    9   23 1
    24   10   24 1
    25   11   25 1
