@<TRIPOS>MOLECULE
1-iodopentane
   17    16     0     0     0
SMALL
USER_CHARGES

@<TRIPOS>ATOM
      1 C1          2.1534   -1.3783   -1.4510 C.3       1 MOL        -0.0919
      2 C2          1.2425   -0.2585   -0.9722 C.3       1 MOL        -0.0797
      3 C3          0.4443   -0.6145    0.2839 C.3       1 MOL        -0.0808
      4 C4         -0.4711    0.5157    0.7620 C.3       1 MOL        -0.0757
      5 C5         -1.2415    0.1040    2.0170 C.3       1 MOL         0.0682
      6 I1         -2.5159    1.6901    2.6745 I         1 MOL        -0.2540
      7 H1          2.7072   -1.0891   -2.3489 H         1 MOL         0.0340
      8 H2          2.8862   -1.6234   -0.6754 H         1 MOL         0.0340
      9 H3          1.5801   -2.2837   -1.6733 H         1 MOL         0.0340
     10 H4          0.5590    0.0266   -1.7806 H         1 MOL         0.0398
     11 H5          1.8588    0.6218   -0.7535 H         1 MOL         0.0398
     12 H6          1.1553   -0.8619    1.0820 H         1 MOL         0.0413
     13 H7         -0.1491   -1.5181    0.0983 H         1 MOL         0.0413
     14 H8          0.1309    1.4093    0.9683 H         1 MOL         0.0537
     15 H9         -1.1794    0.7811   -0.0315 H         1 MOL         0.0537
     16 H10        -0.5423   -0.1547    2.8198 H         1 MOL         0.0713
     17 H11        -1.8465   -0.7861    1.8113 H         1 MOL         0.0713
@<TRIPOS>BOND
     1    1    2 1
     2    2    3 1
     3    3    4 1
     4    4    5 1
     5    5    6 1
     6    1    7 1
     7    1    8 1
     8    1    9 1
     9    2   10 1
    10    2   11 1
    11    3   12 1
    12    3   13 1
    13    4   14 1
    14    4   15 1
    15    5   16 1
    16    5   17 1
