@<TRIPOS>MOLECULE
2-ethoxyethyl acetate
   21    20     0     0     0
SMALL
USER_CHARGES

@<TRIPOS>ATOM
      1 C1          1.2254   -0.5762   -5.4127 C.3       1 MOL        -0.0969
      2 C2          0.2816    0.5843   -5.1803 C.3       1 MOL         0.1278
      3 O1         -0.6779    0.2117   -4.2003 O.3       1 MOL        -0.4106
      4 C3         -1.5951    1.2671   -3.9396 C.3       1 MOL         0.1263
      5 C4         -2.5898    0.8104   -2.8899 C.3       1 MOL         0.1382
      6 O2         -1.8828    0.4727   -1.6923 O.3       1 MOL        -0.4308
      7 C5         -2.6576    0.0424   -0.6562 C.2       1 MOL         0.6328
      8 O3         -3.8753   -0.0773   -0.6607 O.2       1 MOL        -0.5466
      9 C6         -1.7876   -0.2733    0.5226 C.3       1 MOL        -0.1497
     10 H1          1.9787   -0.3223   -6.1636 H         1 MOL         0.0458
     11 H2          1.7326   -0.8535   -4.4828 H         1 MOL         0.0458
     12 H3          0.6741   -1.4602   -5.7503 H         1 MOL         0.0458
     13 H4         -0.2420    0.8444   -6.1051 H         1 MOL         0.0233
     14 H5          0.8307    1.4598   -4.8210 H         1 MOL         0.0233
     15 H6         -1.0262    2.1352   -3.5927 H         1 MOL         0.0375
     16 H7         -2.1095    1.5125   -4.8733 H         1 MOL         0.0375
     17 H8         -3.1371   -0.0766   -3.2242 H         1 MOL         0.0608
     18 H9         -3.2957    1.6128   -2.6564 H         1 MOL         0.0608
     19 H10        -1.6685    0.6172    1.1447 H         1 MOL         0.0763
     20 H11        -0.8157   -0.6368    0.1796 H         1 MOL         0.0763
     21 H12        -2.2599   -1.0568    1.1223 H         1 MOL         0.0763
@<TRIPOS>BOND
     1    1    2 1
     2    2    3 1
     3    3    4 1
     4    4    5 1
     5    5    6 1
     6    6    7 1
     7    7    8 2
     8    7    9 1
     9    1   10 1
    10    1   11 1
    11    1   12 1
    12    2   13 1
    13    2   14 1
    14    4   15 1
    15    4   16 1
    16    5   17 1
    17    5   18 1
    18    9   19 1
    19    9   20 1
    20    9   21 1
