@<TRIPOS>MOLECULE
1,1,2,2-tetrachloroethane
    8     7     0     0     0
SMALL
USER_CHARGES

@<TRIPOS>ATOM
      1 C1         -0.4361    0.0140    0.6394 C.3       1 MOL         0.1221
      2 C2          0.4211    0.2029   -0.6170 C.3       1 MOL         0.1221
      3 Cl1         1.5989   -1.1152   -0.8717 Cl        1 MOL        -0.1178
      4 Cl2        -0.5997    0.3687   -2.0747 Cl        1 MOL        -0.1178
      5 Cl3        -1.4016   -1.4882    0.6147 Cl        1 MOL        -0.1178
      6 Cl4         0.5701    0.0415    2.1162 Cl        1 MOL        -0.1178
      7 H1         -1.1450    0.8417    0.7388 H         1 MOL         0.1134
      8 H2          0.9976    1.1302   -0.5427 H         1 MOL         0.1134
@<TRIPOS>BOND
     1    1    2 1
     2    2    3 1
     3    2    4 1
     4    1    5 1
     5    1    6 1
     6    1    7 1
     7    2    8 1
