@<TRIPOS>MOLECULE
hexan-2-one
   19    18     0     0     0
SMALL
USER_CHARGES

@<TRIPOS>ATOM
      1 C1          5.2324   -3.7728    0.9382 C.3       1 MOL        -0.0916
      2 C2          4.1008   -2.9946    0.2859 C.3       1 MOL        -0.0794
      3 C3          3.2452   -2.2727    1.3260 C.3       1 MOL        -0.0752
      4 C4          2.1100   -1.4926    0.6670 C.3       1 MOL        -0.1791
      5 C5          1.2349   -0.7591    1.6733 C.2       1 MOL         0.5622
      6 O1          1.4612   -0.8204    2.8872 O.2       1 MOL        -0.5324
      7 C6          0.0612    0.0536    1.0941 C.3       1 MOL        -0.2042
      8 H1          5.8398   -4.2865    0.1861 H         1 MOL         0.0348
      9 H2          5.8854   -3.0951    1.4971 H         1 MOL         0.0348
     10 H3          4.8429   -4.5213    1.6356 H         1 MOL         0.0348
     11 H4          3.4777   -3.6849   -0.2947 H         1 MOL         0.0358
     12 H5          4.5231   -2.2681   -0.4180 H         1 MOL         0.0358
     13 H6          3.8731   -1.5886    1.9104 H         1 MOL         0.0543
     14 H7          2.8302   -3.0018    2.0333 H         1 MOL         0.0543
     15 H8          2.5213   -0.7470   -0.0225 H         1 MOL         0.0632
     16 H9          1.4668   -2.1760    0.1015 H         1 MOL         0.0632
     17 H10        -0.8500   -0.5527    1.0147 H         1 MOL         0.0629
     18 H11        -0.1962    0.9298    1.7021 H         1 MOL         0.0629
     19 H12         0.2852    0.4255    0.0862 H         1 MOL         0.0629
@<TRIPOS>BOND
     1    1    2 1
     2    2    3 1
     3    3    4 1
     4    4    5 1
     5    5    6 2
     6    5    7 1
     7    1    8 1
     8    1    9 1
     9    1   10 1
    10    2   11 1
    11    2   12 1
    12    3   13 1
    13    3   14 1
    14    4   15 1
    15    4   16 1
    16    7   17 1
    17    7   18 1
    18    7   19 1
