@<TRIPOS>MOLECULE
methyl pentanoate
   20    19     0     0     0
SMALL
USER_CHARGES

@<TRIPOS>ATOM
      1 C1         -0.5100    0.9075    0.3410 C.3       1 MOL        -0.0922
      2 C2         -0.5735    0.9573    1.8590 C.3       1 MOL        -0.0853
      3 C3          0.8236    0.9589    2.4780 C.3       1 MOL        -0.0754
      4 C4          0.7559    1.0090    4.0034 C.3       1 MOL        -0.1272
      5 C5          2.1308    1.0111    4.6317 C.2       1 MOL         0.6317
      6 O1          3.1878    0.9774    4.0169 O.2       1 MOL        -0.5427
      7 O2          1.9955    1.0549    5.9905 O.3       1 MOL        -0.4449
      8 C6          3.2196    1.0606    6.7322 C.3       1 MOL         0.1281
      9 H1         -1.5145    0.9067   -0.0941 H         1 MOL         0.0345
     10 H2          0.0364    1.7685   -0.0570 H         1 MOL         0.0345
     11 H3          0.0032   -0.0016    0.0126 H         1 MOL         0.0345
     12 H4         -1.1185    1.8573    2.1671 H         1 MOL         0.0443
     13 H5         -1.1415    0.0934    2.2234 H         1 MOL         0.0443
     14 H6          1.3925    1.8200    2.1052 H         1 MOL         0.0550
     15 H7          1.3691    0.0609    2.1617 H         1 MOL         0.0550
     16 H8          0.2109    0.1352    4.3782 H         1 MOL         0.0777
     17 H9          0.2341    1.9191    4.3202 H         1 MOL         0.0777
     18 H10         2.9851    1.0966    7.7937 H         1 MOL         0.0501
     19 H11         3.8043    1.9286    6.4355 H         1 MOL         0.0501
     20 H12         3.7621    0.1470    6.5000 H         1 MOL         0.0501
@<TRIPOS>BOND
     1    1    2 1
     2    2    3 1
     3    3    4 1
     4    4    5 1
     5    5    6 2
     6    5    7 1
     7    7    8 1
     8    1    9 1
     9    1   10 1
    10    1   11 1
    11    2   12 1
    12    2   13 1
    13    3   14 1
    14    3   15 1
    15    4   16 1
    16    4   17 1
    17    8   18 1
    18    8   19 1
    19    8   20 1
