@<TRIPOS>MOLECULE
heptan-1-ol
   24    23     0     0     0
SMALL
USER_CHARGES

@<TRIPOS>ATOM
      1 C1          2.0149   -2.4052   -0.2391 C.3       1 MOL        -0.0924
      2 C2          1.5983   -2.9291   -1.6052 C.3       1 MOL        -0.0798
      3 C3          0.0762   -3.0068   -1.7315 C.3       1 MOL        -0.0792
      4 C4         -0.3960   -3.5293   -3.0913 C.3       1 MOL        -0.0775
      5 C5         -1.9190   -3.6070   -3.2176 C.3       1 MOL        -0.0778
      6 C6         -2.3340   -4.1335   -4.5907 C.3       1 MOL        -0.0846
      7 C7         -3.8478   -4.2149   -4.7273 C.3       1 MOL         0.1318
      8 O1         -4.1663   -4.7094   -6.0208 O.3       1 MOL        -0.6021
      9 H1          3.1051   -2.3520   -0.1552 H         1 MOL         0.0328
     10 H2          1.6450   -3.0678    0.5496 H         1 MOL         0.0328
     11 H3          1.6067   -1.4051   -0.0609 H         1 MOL         0.0328
     12 H4          2.0366   -3.9220   -1.7580 H         1 MOL         0.0390
     13 H5          2.0114   -2.2675   -2.3739 H         1 MOL         0.0390
     14 H6         -0.3622   -2.0188   -1.5448 H         1 MOL         0.0384
     15 H7         -0.3137   -3.6763   -0.9545 H         1 MOL         0.0384
     16 H8          0.0104   -2.8967   -3.8898 H         1 MOL         0.0410
     17 H9          0.0265   -4.5313   -3.2368 H         1 MOL         0.0410
     18 H10        -2.3599   -2.6154   -3.0669 H         1 MOL         0.0388
     19 H11        -2.3199   -4.2641   -2.4365 H         1 MOL         0.0388
     20 H12        -1.9007   -5.1265   -4.7643 H         1 MOL         0.0549
     21 H13        -1.9320   -3.4884   -5.3821 H         1 MOL         0.0549
     22 H14        -4.3046   -3.2270   -4.6101 H         1 MOL         0.0204
     23 H15        -4.2711   -4.8944   -3.9808 H         1 MOL         0.0204
     24 H16        -5.1349   -4.7491   -6.0752 H         1 MOL         0.3980
@<TRIPOS>BOND
     1    1    2 1
     2    2    3 1
     3    3    4 1
     4    4    5 1
     5    5    6 1
     6    6    7 1
     7    7    8 1
     8    1    9 1
     9    1   10 1
    10    1   11 1
    11    2   12 1
    12    2   13 1
    13    3   14 1
    14    3   15 1
    15    4   16 1
    16    4   17 1
    17    5   18 1
    18    5   19 1
    19    6   20 1
    20    6   21 1
    21    7   22 1
    22    7   23 1
    23    8   24 1
