@<TRIPOS>MOLECULE
quinoline
   17    18     0     0     0
SMALL
USER_CHARGES

@<TRIPOS>ATOM
      1 C1          0.1298    2.0977   -0.4527 C.ar      1 MOL        -0.1270
      2 C2         -0.5469    0.8976   -0.2738 C.ar      1 MOL        -0.1239
      3 C3         -1.9323    0.8440   -0.4461 C.ar      1 MOL        -0.1642
      4 C4         -2.6683    1.9725   -0.7968 C.ar      1 MOL         0.3929
      5 C5         -1.9747    3.1875   -0.9770 C.ar      1 MOL        -0.1479
      6 C6         -0.5812    3.2417   -0.8037 C.ar      1 MOL        -0.1117
      7 C7         -2.7151    4.3237   -1.3301 C.ar      1 MOL        -0.0801
      8 C8         -4.0902    4.2376   -1.4936 C.ar      1 MOL        -0.2499
      9 C9         -4.6804    3.0058   -1.2959 C.ar      1 MOL         0.4111
     10 N1         -4.0027    1.8858   -0.9548 N.ar      1 MOL        -0.6571
     11 H1          1.2068    2.1425   -0.3219 H         1 MOL         0.1344
     12 H2          0.0001    0.0000   -0.0007 H         1 MOL         0.1354
     13 H3         -2.4389   -0.1083   -0.2998 H         1 MOL         0.1507
     14 H4         -0.0422    4.1763   -0.9411 H         1 MOL         0.1337
     15 H5         -2.2235    5.2822   -1.4809 H         1 MOL         0.1382
     16 H6         -4.6779    5.1058   -1.7678 H         1 MOL         0.1436
     17 H7         -5.7519    2.8778   -1.4106 H         1 MOL         0.0219
@<TRIPOS>BOND
     1    1    6 ar
     2    1    2 ar
     3    2    3 ar
     4    3    4 ar
     5    4   10 ar
     6    4    5 ar
     7    5    6 ar
     8    5    7 ar
     9    7    8 ar
    10    8    9 ar
    11    9   10 ar
    12    1   11 1
    13    2   12 1
    14    3   13 1
    15    6   14 1
    16    7   15 1
    17    8   16 1
    18    9   17 1
