@<TRIPOS>MOLECULE
2,4-dimethylphenol
   19    19     0     0     0
SMALL
USER_CHARGES

@<TRIPOS>ATOM
      1 C1          1.9320   -1.0138   -1.6029 C.3       1 MOL        -0.0480
      2 C2          1.8851   -1.0363   -0.1124 C.ar      1 MOL        -0.1086
      3 C3          2.9210   -1.6309    0.6081 C.ar      1 MOL        -0.0973
      4 C4          2.8783   -1.6520    2.0022 C.ar      1 MOL        -0.2073
      5 C5          1.7997   -1.0786    2.6757 C.ar      1 MOL         0.1183
      6 C6          0.7638   -0.4841    1.9551 C.ar      1 MOL        -0.0953
      7 C7          0.8066   -0.4630    0.5610 C.ar      1 MOL        -0.1014
      8 C8         -0.3986    0.1336    2.6596 C.3       1 MOL        -0.0447
      9 O1          1.7729   -1.1097    4.0375 O.3       1 MOL        -0.4985
     10 H1          2.4403   -0.1083   -1.9479 H         1 MOL         0.0422
     11 H2          2.4648   -1.8884   -1.9906 H         1 MOL         0.0422
     12 H3          0.9221   -1.0362   -2.0261 H         1 MOL         0.0422
     13 H4          3.7650   -2.0798    0.0914 H         1 MOL         0.1321
     14 H5          3.6894   -2.1156    2.5572 H         1 MOL         0.1314
     15 H6         -0.0017   -0.0007   -0.0009 H         1 MOL         0.1339
     16 H7         -0.1985    1.1911    2.8684 H         1 MOL         0.0470
     17 H8         -1.3117    0.0636    2.0553 H         1 MOL         0.0470
     18 H9         -0.6044   -0.3771    3.6087 H         1 MOL         0.0470
     19 H10         2.5630   -1.5578    4.3780 H         1 MOL         0.4178
@<TRIPOS>BOND
     1    1    2 1
     2    2    7 ar
     3    2    3 ar
     4    3    4 ar
     5    4    5 ar
     6    5    6 ar
     7    6    7 ar
     8    6    8 1
     9    5    9 1
    10    1   10 1
    11    1   11 1
    12    1   12 1
    13    3   13 1
    14    4   14 1
    15    7   15 1
    16    8   16 1
    17    8   17 1
    18    8   18 1
    19    9   19 1
