@<TRIPOS>MOLECULE
2,4-dimethylpentan-3-one
   22    21     0     0     0
SMALL
USER_CHARGES

@<TRIPOS>ATOM
      1 C1          2.2497    1.2047    0.3014 C.3       1 MOL        -0.0862
      2 C2          0.8442    0.9854   -0.2503 C.3       1 MOL        -0.1614
      3 C3          0.0384    2.2787   -0.2281 C.3       1 MOL        -0.0862
      4 C4          0.1056   -0.0864    0.5492 C.2       1 MOL         0.5668
      5 O1          0.3363   -0.2748    1.7444 O.2       1 MOL        -0.5278
      6 C5         -0.9338   -0.9126   -0.2061 C.3       1 MOL        -0.1614
      7 C6         -2.0525   -1.3659    0.7272 C.3       1 MOL        -0.0862
      8 C7         -0.2516   -2.1058   -0.8644 C.3       1 MOL        -0.0862
      9 H1          2.8363    0.2794    0.2891 H         1 MOL         0.0425
     10 H2          2.2094    1.5658    1.3344 H         1 MOL         0.0425
     11 H3          2.7898    1.9468   -0.2965 H         1 MOL         0.0425
     12 H4          0.9406    0.6340   -1.2841 H         1 MOL         0.0590
     13 H5         -0.9704    2.1212   -0.6241 H         1 MOL         0.0425
     14 H6         -0.0676    2.6632    0.7925 H         1 MOL         0.0425
     15 H7          0.5221    3.0505   -0.8355 H         1 MOL         0.0425
     16 H8         -1.3795   -0.2756   -0.9789 H         1 MOL         0.0590
     17 H9         -2.7961   -1.9580    0.1827 H         1 MOL         0.0425
     18 H10        -1.6545   -1.9843    1.5385 H         1 MOL         0.0425
     19 H11        -2.5733   -0.5127    1.1763 H         1 MOL         0.0425
     20 H12        -0.9720   -2.7203   -1.4158 H         1 MOL         0.0425
     21 H13         0.5224   -1.7755   -1.5647 H         1 MOL         0.0425
     22 H14         0.2230   -2.7504   -0.1171 H         1 MOL         0.0425
@<TRIPOS>BOND
     1    1    2 1
     2    2    3 1
     3    2    4 1
     4    4    5 2
     5    4    6 1
     6    6    7 1
     7    6    8 1
     8    1    9 1
     9    1   10 1
    10    1   11 1
    11    2   12 1
    12    3   13 1
    13    3   14 1
    14    3   15 1
    15    6   16 1
    16    7   17 1
    17    7   18 1
    18    7   19 1
    19    8   20 1
    20    8   21 1
    21    8   22 1
