@<TRIPOS>MOLECULE
2-methoxyphenol
   17    17     0     0     0
SMALL
USER_CHARGES

@<TRIPOS>ATOM
      1 C1          3.0744   -1.6295   -2.0769 C.3       1 MOL         0.1179
      2 O1          1.9380   -1.0221   -1.4736 O.3       1 MOL        -0.3430
      3 C2          1.8851   -1.0363   -0.1124 C.ar      1 MOL         0.0359
      4 C3          2.9210   -1.6309    0.6081 C.ar      1 MOL        -0.1610
      5 C4          2.8783   -1.6520    2.0022 C.ar      1 MOL        -0.1362
      6 C5          1.7997   -1.0786    2.6757 C.ar      1 MOL        -0.1245
      7 C6          0.7638   -0.4841    1.9551 C.ar      1 MOL        -0.1372
      8 C7          0.8066   -0.4630    0.5610 C.ar      1 MOL         0.1126
      9 O2         -0.2120    0.1189   -0.1313 O.3       1 MOL        -0.4964
     10 H1          2.9960   -1.5516   -3.1640 H         1 MOL         0.0455
     11 H2          3.1284   -2.6797   -1.7791 H         1 MOL         0.0455
     12 H3          3.9752   -1.1106   -1.7407 H         1 MOL         0.0455
     13 H4          3.7636   -2.0800    0.0898 H         1 MOL         0.1374
     14 H5          3.6855   -2.1140    2.5632 H         1 MOL         0.1342
     15 H6          1.7656   -1.0967    3.7611 H         1 MOL         0.1359
     16 H7         -0.0744   -0.0402    2.4854 H         1 MOL         0.1516
     17 H8         -0.0465    0.0585   -1.0853 H         1 MOL         0.4361
@<TRIPOS>BOND
     1    1    2 1
     2    2    3 1
     3    3    8 ar
     4    3    4 ar
     5    4    5 ar
     6    5    6 ar
     7    6    7 ar
     8    7    8 ar
     9    8    9 1
    10    1   10 1
    11    1   11 1
    12    1   12 1
    13    4   13 1
    14    5   14 1
    15    6   15 1
    16    7   16 1
    17    9   17 1
