@<TRIPOS>MOLECULE
1,2,3,4-tetrachloro-5-(2,3,4,6-tetrachlorophenyl)benzene
   22    23     0     0     0
SMALL
USER_CHARGES

@<TRIPOS>ATOM
      1 C1          1.8851   -1.0363   -0.1124 C.ar      1 MOL        -0.0849
      2 C2          2.9210   -1.6309    0.6081 C.ar      1 MOL        -0.0289
      3 C3          2.8783   -1.6520    2.0022 C.ar      1 MOL         0.0471
      4 C4          1.7997   -1.0786    2.6757 C.ar      1 MOL         0.0185
      5 C5          0.7638   -0.4841    1.9551 C.ar      1 MOL         0.0312
      6 C6          0.8066   -0.4630    0.5610 C.ar      1 MOL         0.0181
      7 Cl1        -0.4403    0.2530   -0.4027 Cl        1 MOL        -0.0506
      8 Cl2        -0.5886    0.2359    2.7817 Cl        1 MOL        -0.0337
      9 Cl3         1.7480   -1.1068    4.4173 Cl        1 MOL        -0.0345
     10 Cl4         4.1836   -2.3982    2.8820 Cl        1 MOL        -0.0402
     11 C7          4.0190   -2.2131   -0.1429 C.ar      1 MOL        -0.0348
     12 C8          3.9523   -3.5505   -0.5336 C.ar      1 MOL         0.0481
     13 C9          5.0009   -4.1189   -1.2568 C.ar      1 MOL        -0.1192
     14 C10         6.1163   -3.3501   -1.5891 C.ar      1 MOL         0.0379
     15 C11         6.1830   -2.0127   -1.1983 C.ar      1 MOL         0.0099
     16 C12         5.1344   -1.4443   -0.4751 C.ar      1 MOL         0.0493
     17 Cl5         5.2092    0.2251    0.0211 Cl        1 MOL        -0.0369
     18 Cl6         7.5804   -1.0644   -1.6192 Cl        1 MOL        -0.0336
     19 Cl7         7.3768   -4.1262   -2.4866 Cl        1 MOL        -0.0474
     20 Cl8         2.5966   -4.5593   -0.1564 Cl        1 MOL        -0.0535
     21 H1          1.9187   -1.0199   -1.2006 H         1 MOL         0.1664
     22 H2          4.9484   -5.1623   -1.5620 H         1 MOL         0.1718
@<TRIPOS>BOND
     1    1    6 ar
     2    1    2 ar
     3    2    3 ar
     4    3    4 ar
     5    4    5 ar
     6    5    6 ar
     7    6    7 1
     8    5    8 1
     9    4    9 1
    10    3   10 1
    11    2   11 1
    12   11   16 ar
    13   11   12 ar
    14   12   13 ar
    15   13   14 ar
    16   14   15 ar
    17   15   16 ar
    18   16   17 1
    19   15   18 1
    20   14   19 1
    21   12   20 1
    22    1   21 1
    23   13   22 1
