@<TRIPOS>MOLECULE
1-(3-pyridyl)ethanone
   16    16     0     0     0
SMALL
USER_CHARGES

@<TRIPOS>ATOM
      1 C1          3.4283   -1.3162    4.5412 C.3       1 MOL        -0.1982
      2 C2          2.8572   -0.2746    3.6316 C.2       1 MOL         0.5811
      3 O1          3.4282    0.8084    3.5565 O.2       1 MOL        -0.5290
      4 C3          1.6520   -0.6227    2.8997 C.ar      1 MOL        -0.2910
      5 C4          1.3879   -0.0684    1.6522 C.ar      1 MOL        -0.0420
      6 C5          0.2265   -0.4197    0.9733 C.ar      1 MOL        -0.2565
      7 C6         -0.6317   -1.3224    1.5803 C.ar      1 MOL         0.4156
      8 N1         -0.4092   -1.8816    2.7908 N.ar      1 MOL        -0.6707
      9 C7          0.7299   -1.5161    3.4206 C.ar      1 MOL         0.4292
     10 H1          3.0362   -1.2802    5.5700 H         1 MOL         0.0673
     11 H2          4.5269   -1.2829    4.6053 H         1 MOL         0.0673
     12 H3          3.2024   -2.3455    4.2102 H         1 MOL         0.0673
     13 H4          2.0802    0.6368    1.2001 H         1 MOL         0.1586
     14 H5         -0.0005   -0.0000    0.0000 H         1 MOL         0.1496
     15 H6         -1.5507   -1.6291    1.0919 H         1 MOL         0.0262
     16 H7          0.8808   -1.9808    4.3904 H         1 MOL         0.0252
@<TRIPOS>BOND
     1    1    2 1
     2    2    3 2
     3    2    4 1
     4    4    9 ar
     5    4    5 ar
     6    5    6 ar
     7    6    7 ar
     8    7    8 ar
     9    8    9 ar
    10    1   10 1
    11    1   11 1
    12    1   12 1
    13    5   13 1
    14    6   14 1
    15    7   15 1
    16    9   16 1
