@<TRIPOS>MOLECULE
2,6-dimethylaniline
   20    20     0     0     0
SMALL
USER_CHARGES

@<TRIPOS>ATOM
      1 C1          1.9595   -1.0271   -1.6048 C.3       1 MOL        -0.0421
      2 C2          1.8851   -1.0363   -0.1124 C.ar      1 MOL        -0.1622
      3 C3          2.9210   -1.6309    0.6081 C.ar      1 MOL        -0.0838
      4 C4          2.8783   -1.6520    2.0022 C.ar      1 MOL        -0.1864
      5 C5          1.7997   -1.0786    2.6757 C.ar      1 MOL        -0.0838
      6 C6          0.7638   -0.4841    1.9551 C.ar      1 MOL        -0.1622
      7 C7          0.8066   -0.4630    0.5610 C.ar      1 MOL         0.2036
      8 N1         -0.2425    0.1420   -0.1698 N.pl3     1 MOL        -0.8904
      9 C8         -0.3779    0.1227    2.7040 C.3       1 MOL        -0.0421
     10 H1          2.4752   -0.1252   -1.9484 H         1 MOL         0.0369
     11 H2          2.4982   -1.9057   -1.9748 H         1 MOL         0.0369
     12 H3          0.9575   -1.0521   -2.0462 H         1 MOL         0.0369
     13 H4          3.7657   -2.0805    0.0927 H         1 MOL         0.1261
     14 H5          3.6854   -2.1138    2.5634 H         1 MOL         0.1293
     15 H6          1.7756   -1.1008    3.7621 H         1 MOL         0.1261
     16 H7         -0.1741    0.1905   -1.1642 H         1 MOL         0.4232
     17 H8         -0.9824    0.5906    0.3277 H         1 MOL         0.4232
     18 H9         -0.1708    1.1765    2.9223 H         1 MOL         0.0369
     19 H10        -1.3078    0.0610    2.1259 H         1 MOL         0.0369
     20 H11        -0.5542   -0.4030    3.6504 H         1 MOL         0.0369
@<TRIPOS>BOND
     1    1    2 1
     2    2    7 ar
     3    2    3 ar
     4    3    4 ar
     5    4    5 ar
     6    5    6 ar
     7    6    7 ar
     8    7    8 1
     9    6    9 1
    10    1   10 1
    11    1   11 1
    12    1   12 1
    13    3   13 1
    14    4   14 1
    15    5   15 1
    16    8   16 1
    17    8   17 1
    18    9   18 1
    19    9   19 1
    20    9   20 1
