@<TRIPOS>MOLECULE
1,2,3,7-tetrachlorodibenzo-p-dioxin
   22    24     0     0     0
SMALL
USER_CHARGES

@<TRIPOS>ATOM
      1 C1         -1.0039   -0.2568    0.3257 C.ar      1 MOL        -0.1184
      2 C2         -1.4367   -1.5819    0.2693 C.ar      1 MOL        -0.1037
      3 C3         -2.7266   -1.9051    0.6889 C.ar      1 MOL         0.0599
      4 C4         -3.5799   -0.9097    1.1626 C.ar      1 MOL         0.0698
      5 C5         -3.1487    0.4152    1.2196 C.ar      1 MOL        -0.1097
      6 C6         -1.8584    0.7400    0.8000 C.ar      1 MOL         0.0189
      7 Cl1        -1.3203    2.3737    0.8635 Cl        1 MOL        -0.0758
      8 O1         -4.8561   -1.1828    1.5855 O.3       1 MOL        -0.2151
      9 C7         -5.2389   -2.4982    1.5123 C.ar      1 MOL         0.0792
     10 C8         -6.5287   -2.8214    1.9320 C.ar      1 MOL        -0.1079
     11 C9         -6.9616   -4.1465    1.8755 C.ar      1 MOL         0.0254
     12 C10        -6.1071   -5.1433    1.4010 C.ar      1 MOL         0.0159
     13 C11        -4.8168   -4.8184    0.9815 C.ar      1 MOL         0.0302
     14 C12        -4.3856   -3.4936    1.0385 C.ar      1 MOL         0.0754
     15 O2         -3.1093   -3.2205    0.6157 O.3       1 MOL        -0.2037
     16 Cl2        -3.7292   -6.0337    0.3825 Cl        1 MOL        -0.0270
     17 Cl3        -6.6598   -6.7917    1.3344 Cl        1 MOL        -0.0359
     18 Cl4        -8.5742   -4.4762    2.4110 Cl        1 MOL        -0.0489
     19 H1          0.0028   -0.0139   -0.0054 H         1 MOL         0.1581
     20 H2         -0.7668   -2.3525   -0.1020 H         1 MOL         0.1642
     21 H3         -3.8195    1.1864    1.5899 H         1 MOL         0.1717
     22 H4         -7.1864   -2.0368    2.2994 H         1 MOL         0.1773
@<TRIPOS>BOND
     1    1    6 ar
     2    1    2 ar
     3    2    3 ar
     4    3   15 1
     5    3    4 ar
     6    4    5 ar
     7    5    6 ar
     8    6    7 1
     9    4    8 1
    10    8    9 1
    11    9   14 ar
    12    9   10 ar
    13   10   11 ar
    14   11   12 ar
    15   12   13 ar
    16   13   14 ar
    17   14   15 1
    18   13   16 1
    19   12   17 1
    20   11   18 1
    21    1   19 1
    22    2   20 1
    23    5   21 1
    24   10   22 1
