@<TRIPOS>MOLECULE
butanenitrile
   12    11     0     0     0
SMALL
USER_CHARGES

@<TRIPOS>ATOM
      1 C1         -0.0177    0.2011   -1.0759 C.3       1 MOL        -0.0948
      2 C2         -1.1844    1.1047   -1.4423 C.3       1 MOL        -0.0797
      3 C3         -1.0966    2.4513   -0.7272 C.3       1 MOL        -0.0226
      4 C4         -2.2279    3.3158   -1.0880 C.1       1 MOL         0.2101
      5 N1         -3.1208    4.0002   -1.3721 N.1       1 MOL        -0.3768
      6 H1         -0.0893   -0.7611   -1.5930 H         1 MOL         0.0384
      7 H2          0.9370    0.6653   -1.3431 H         1 MOL         0.0384
      8 H3         -0.0116    0.0079    0.0014 H         1 MOL         0.0384
      9 H4         -1.1955    1.2559   -2.5289 H         1 MOL         0.0513
     10 H5         -2.1245    0.6021   -1.1833 H         1 MOL         0.0513
     11 H6         -0.1570    2.9512   -0.9891 H         1 MOL         0.0729
     12 H7         -1.0870    2.2966    0.3579 H         1 MOL         0.0729
@<TRIPOS>BOND
     1    1    2 1
     2    2    3 1
     3    3    4 1
     4    4    5 3
     5    1    6 1
     6    1    7 1
     7    1    8 1
     8    2    9 1
     9    2   10 1
    10    3   11 1
    11    3   12 1
