@<TRIPOS>MOLECULE
(2S)-butan-2-ol
   15    14     0     0     0
SMALL
USER_CHARGES

@<TRIPOS>ATOM
      1 C1          0.9784   -0.0326   -0.2360 C.3       1 MOL        -0.0896
      2 C2          1.4098    0.6794   -1.5114 C.3       1 MOL        -0.0733
      3 C3          0.6395    0.1877   -2.7386 C.3       1 MOL         0.1389
      4 H1          0.8085   -0.8858   -2.8804 H         1 MOL         0.0287
      5 C4          1.0608    0.9421   -3.9925 C.3       1 MOL        -0.1304
      6 O1         -0.7550    0.3897   -2.5267 O.3       1 MOL        -0.5987
      7 H2          1.5425    0.3354    0.6270 H         1 MOL         0.0374
      8 H3          1.1302   -1.1138   -0.3115 H         1 MOL         0.0374
      9 H4         -0.0850    0.1451   -0.0463 H         1 MOL         0.0374
     10 H5          2.4847    0.5237   -1.6590 H         1 MOL         0.0452
     11 H6          1.2456    1.7551   -1.3741 H         1 MOL         0.0452
     12 H7          0.5068    0.5869   -4.8686 H         1 MOL         0.0417
     13 H8          0.8954    2.0183   -3.8841 H         1 MOL         0.0417
     14 H9          2.1225    0.7735   -4.2027 H         1 MOL         0.0417
     15 H10        -1.2053    0.0669   -3.3228 H         1 MOL         0.3968
@<TRIPOS>BOND
     1    1    2 1
     2    2    3 1
     3    3    4 1
     4    3    5 1
     5    3    6 1
     6    1    7 1
     7    1    8 1
     8    1    9 1
     9    2   10 1
    10    2   11 1
    11    5   12 1
    12    5   13 1
    13    5   14 1
    14    6   15 1
