@<TRIPOS>MOLECULE
1-phenylethanone
   17    17     0     0     0
SMALL
USER_CHARGES

@<TRIPOS>ATOM
      1 C1          1.2615    0.1339   -2.2526 C.3       1 MOL        -0.1982
      2 C2          1.9292   -1.0155   -1.5659 C.2       1 MOL         0.5759
      3 O1          2.4684   -1.8728   -2.2578 O.2       1 MOL        -0.5326
      4 C3          1.8851   -1.0363   -0.1124 C.ar      1 MOL        -0.1738
      5 C4          2.9210   -1.6309    0.6081 C.ar      1 MOL        -0.0862
      6 C5          2.8783   -1.6520    2.0022 C.ar      1 MOL        -0.1410
      7 C6          1.7997   -1.0786    2.6757 C.ar      1 MOL        -0.1052
      8 C7          0.7638   -0.4841    1.9551 C.ar      1 MOL        -0.1410
      9 C8          0.8066   -0.4630    0.5610 C.ar      1 MOL        -0.0862
     10 H1          0.1994   -0.0375   -2.4890 H         1 MOL         0.0649
     11 H2          1.7631    0.4343   -3.1856 H         1 MOL         0.0649
     12 H3          1.2487    1.0520   -1.6385 H         1 MOL         0.0649
     13 H4          3.7660   -2.0811    0.0935 H         1 MOL         0.1433
     14 H5          3.6850   -2.1145    2.5633 H         1 MOL         0.1366
     15 H6          1.7660   -1.0948    3.7610 H         1 MOL         0.1339
     16 H7         -0.0760   -0.0384    2.4800 H         1 MOL         0.1366
     17 H8         -0.0059    0.0036    0.0099 H         1 MOL         0.1433
@<TRIPOS>BOND
     1    1    2 1
     2    2    3 2
     3    2    4 1
     4    4    9 ar
     5    4    5 ar
     6    5    6 ar
     7    6    7 ar
     8    7    8 ar
     9    8    9 ar
    10    1   10 1
    11    1   11 1
    12    1   12 1
    13    5   13 1
    14    6   14 1
    15    7   15 1
    16    8   16 1
    17    9   17 1
