@<TRIPOS>MOLECULE
2-chloro-1,1,1-trifluoro-ethane
    8     7     0     0     0
SMALL
USER_CHARGES

@<TRIPOS>ATOM
      1 C1         -0.0165    0.7148   -0.2710 C.3       1 MOL        -0.0297
      2 C2          0.0300   -0.7407    0.1200 C.3       1 MOL         0.6249
      3 F1         -1.0937   -1.1171    0.7664 F         1 MOL        -0.2297
      4 F2          1.0845   -1.0063    0.9198 F         1 MOL        -0.2297
      5 F3          0.1469   -1.5187   -0.9796 F         1 MOL        -0.2297
      6 Cl1        -0.1864    1.7495    1.1631 Cl        1 MOL        -0.1126
      7 H1          0.9014    1.0065   -0.7887 H         1 MOL         0.1033
      8 H2         -0.8665    0.9120   -0.9300 H         1 MOL         0.1033
@<TRIPOS>BOND
     1    1    2 1
     2    2    3 1
     3    2    4 1
     4    2    5 1
     5    1    6 1
     6    1    7 1
     7    1    8 1
