@<TRIPOS>MOLECULE
iodoethane
    8     7     0     0     0
SMALL
USER_CHARGES

@<TRIPOS>ATOM
      1 C1          0.1447   -0.6955    0.8338 C.3       1 MOL        -0.0922
      2 C2          1.4101   -0.3747    1.6104 C.3       1 MOL         0.0705
      3 I1          3.1275   -0.5146    0.3556 I         1 MOL        -0.2572
      4 H1         -0.7286   -0.6199    1.4900 H         1 MOL         0.0458
      5 H2         -0.0003    0.0003    0.0003 H         1 MOL         0.0458
      6 H3          0.1717   -1.7121    0.4267 H         1 MOL         0.0458
      7 H4          1.5088   -1.0687    2.4520 H         1 MOL         0.0708
      8 H5          1.3374    0.6351    2.0281 H         1 MOL         0.0708
@<TRIPOS>BOND
     1    1    2 1
     2    2    3 1
     3    1    4 1
     4    1    5 1
     5    1    6 1
     6    2    7 1
     7    2    8 1
