@<TRIPOS>MOLECULE
N,N-dimethylmethanamine
   13    12     0     0     0
SMALL
USER_CHARGES

@<TRIPOS>ATOM
      1 C1         -0.2717   -0.2549    1.0309 C.3       1 MOL         0.1495
      2 N1          0.9013   -0.5170    1.8640 N.3       1 MOL        -0.7262
      3 C2          1.7513    0.6707    1.9381 C.3       1 MOL         0.1495
      4 C3          1.6567   -1.6543    1.3398 C.3       1 MOL         0.1495
      5 H1         -0.9027   -1.1460    0.9795 H         1 MOL         0.0309
      6 H2          0.0373    0.0164    0.0177 H         1 MOL         0.0309
      7 H3         -0.8574    0.5673    1.4506 H         1 MOL         0.0309
      8 H4          2.6112    0.4481    2.5607 H         1 MOL         0.0309
      9 H5          1.1810    1.4863    2.3702 H         1 MOL         0.0309
     10 H6          2.0757    0.9354    0.9373 H         1 MOL         0.0309
     11 H7          2.5187   -1.8254    1.9756 H         1 MOL         0.0309
     12 H8          1.9795   -1.4276    0.3292 H         1 MOL         0.0309
     13 H9          1.0175   -2.5308    1.3365 H         1 MOL         0.0309
@<TRIPOS>BOND
     1    1    2 1
     2    2    3 1
     3    2    4 1
     4    1    5 1
     5    1    6 1
     6    1    7 1
     7    3    8 1
     8    3    9 1
     9    3   10 1
    10    4   11 1
    11    4   12 1
    12    4   13 1
