@<TRIPOS>MOLECULE
3,6-dichloro-2-methoxy-benzoic acid
   19    19     0     0     0
SMALL
USER_CHARGES

@<TRIPOS>ATOM
      1 C1          2.5541    0.1096   -2.0815 C.3       1 MOL         0.1124
      2 O1          1.9230   -1.0133   -1.4772 O.3       1 MOL        -0.3275
      3 C2          1.8851   -1.0363   -0.1124 C.ar      1 MOL         0.1531
      4 C3          2.9210   -1.6309    0.6081 C.ar      1 MOL        -0.0102
      5 C4          2.8783   -1.6520    2.0022 C.ar      1 MOL        -0.0873
      6 C5          1.7997   -1.0786    2.6757 C.ar      1 MOL        -0.1343
      7 C6          0.7638   -0.4841    1.9551 C.ar      1 MOL         0.0651
      8 C7          0.8066   -0.4630    0.5610 C.ar      1 MOL        -0.1205
      9 C8         -0.2675    0.1541   -0.2129 C.2       1 MOL         0.6582
     10 O2         -0.6079    1.3355   -0.1378 O.2       1 MOL        -0.5324
     11 O3         -0.8715   -0.7297   -1.0499 O.3       1 MOL        -0.5785
     12 Cl1        -0.5517    0.2128    2.8313 Cl        1 MOL        -0.0532
     13 Cl2         4.2689   -2.3485   -0.1954 Cl        1 MOL        -0.0578
     14 H1          2.5177    0.0074   -3.1689 H         1 MOL         0.0497
     15 H2          3.5922    0.1700   -1.7451 H         1 MOL         0.0497
     16 H3          2.0237    1.0176   -1.7852 H         1 MOL         0.0497
     17 H4          3.6777   -2.1114    2.5781 H         1 MOL         0.1591
     18 H5          1.7817   -1.1038    3.7624 H         1 MOL         0.1601
     19 H6         -1.5942   -0.3244   -1.5752 H         1 MOL         0.4445
@<TRIPOS>BOND
     1    1    2 1
     2    2    3 1
     3    3    8 ar
     4    3    4 ar
     5    4    5 ar
     6    5    6 ar
     7    6    7 ar
     8    7    8 ar
     9    8    9 1
    10    9   10 2
    11    9   11 1
    12    7   12 1
    13    4   13 1
    14    1   14 1
    15    1   15 1
    16    1   16 1
    17    5   17 1
    18    6   18 1
    19   11   19 1
