@<TRIPOS>MOLECULE
3-hydroxybenzonitrile
   14    14     0     0     0
SMALL
USER_CHARGES

@<TRIPOS>ATOM
      1 C1          1.8851   -1.0363   -0.1124 C.ar      1 MOL        -0.0961
      2 C2          2.9210   -1.6309    0.6081 C.ar      1 MOL        -0.1279
      3 C3          2.8783   -1.6520    2.0022 C.ar      1 MOL         0.0169
      4 C4          1.7997   -1.0786    2.6757 C.ar      1 MOL        -0.1201
      5 C5          0.7638   -0.4841    1.9551 C.ar      1 MOL         0.1215
      6 C6          0.8066   -0.4630    0.5610 C.ar      1 MOL        -0.1927
      7 O1         -0.2877    0.0773    2.6120 O.3       1 MOL        -0.4926
      8 C7          3.9398   -2.2612    2.7397 C.1       1 MOL         0.2320
      9 N1          4.8029   -2.7566    3.3395 N.1       1 MOL        -0.3572
     10 H1          1.9181   -1.0197   -1.1979 H         1 MOL         0.1411
     11 H2          3.7548   -2.0739    0.0686 H         1 MOL         0.1483
     12 H3          1.7585   -1.0893    3.7627 H         1 MOL         0.1638
     13 H4          0.0031   -0.0001   -0.0054 H         1 MOL         0.1400
     14 H5         -0.9220    0.4472    1.9775 H         1 MOL         0.4229
@<TRIPOS>BOND
     1    1    6 ar
     2    1    2 ar
     3    2    3 ar
     4    3    4 ar
     5    4    5 ar
     6    5    6 ar
     7    5    7 1
     8    3    8 1
     9    8    9 3
    10    1   10 1
    11    2   11 1
    12    4   12 1
    13    6   13 1
    14    7   14 1
