@<TRIPOS>MOLECULE
(methyldisulfanyl)methane
   10     9     0     0     0
SMALL
USER_CHARGES

@<TRIPOS>ATOM
      1 C1          0.8115   -0.6598    0.3193 C.3       1 MOL        -0.0492
      2 S1          0.2411   -1.6598    1.7146 S.3       1 MOL        -0.1638
      3 S2          1.8940   -2.8212    2.1001 S.3       1 MOL        -0.1638
      4 C2          1.5891   -4.2574    1.0432 C.3       1 MOL        -0.0491
      5 H1          0.0179    0.0205    0.0005 H         1 MOL         0.0710
      6 H2          1.0814   -1.3094   -0.5170 H         1 MOL         0.0710
      7 H3          1.6861   -0.0752    0.6146 H         1 MOL         0.0710
      8 H4          2.4067   -4.9719    1.1503 H         1 MOL         0.0710
      9 H5          1.5236   -3.9383    0.0018 H         1 MOL         0.0710
     10 H6          0.6521   -4.7342    1.3347 H         1 MOL         0.0710
@<TRIPOS>BOND
     1    1    2 1
     2    2    3 1
     3    3    4 1
     4    1    5 1
     5    1    6 1
     6    1    7 1
     7    4    8 1
     8    4    9 1
     9    4   10 1
