@<TRIPOS>MOLECULE
(3R)-2-methylpentan-3-ol
   21    20     0     0     0
SMALL
USER_CHARGES

@<TRIPOS>ATOM
      1 C1          3.2784    0.1292   -0.4291 C.3       1 MOL        -0.0910
      2 C2          1.9819    0.8864   -0.1674 C.3       1 MOL        -0.1124
      3 C3          2.0054    1.6542    1.1619 C.3       1 MOL         0.1397
      4 H1          2.1569    0.9449    1.9854 H         1 MOL         0.0768
      5 C4          0.6961    2.4338    1.4237 C.3       1 MOL        -0.0980
      6 C5         -0.5414    1.5330    1.4850 C.3       1 MOL        -0.0890
      7 C6          0.7991    3.2369    2.7256 C.3       1 MOL        -0.0890
      8 O1          3.1027    2.5655    1.1730 O.3       1 MOL        -0.5958
      9 H2          3.2164   -0.4017   -1.3846 H         1 MOL         0.0375
     10 H3          3.4741   -0.6124    0.3512 H         1 MOL         0.0375
     11 H4          4.1305    0.8144   -0.4775 H         1 MOL         0.0375
     12 H5          1.8137    1.5846   -0.9954 H         1 MOL         0.0433
     13 H6          1.1647    0.1564   -0.1712 H         1 MOL         0.0433
     14 H7          0.5534    3.1503    0.6043 H         1 MOL         0.0435
     15 H8         -1.4486    2.1154    1.6712 H         1 MOL         0.0369
     16 H9         -0.6799    0.9720    0.5550 H         1 MOL         0.0369
     17 H10        -0.4498    0.8081    2.3013 H         1 MOL         0.0369
     18 H11        -0.1275    3.7901    2.9132 H         1 MOL         0.0369
     19 H12         1.6140    3.9659    2.6688 H         1 MOL         0.0369
     20 H13         0.9823    2.5874    3.5881 H         1 MOL         0.0369
     21 H14         2.9652    3.1705    0.4281 H         1 MOL         0.3943
@<TRIPOS>BOND
     1    1    2 1
     2    2    3 1
     3    3    4 1
     4    3    5 1
     5    5    6 1
     6    5    7 1
     7    3    8 1
     8    1    9 1
     9    1   10 1
    10    1   11 1
    11    2   12 1
    12    2   13 1
    13    5   14 1
    14    6   15 1
    15    6   16 1
    16    6   17 1
    17    7   18 1
    18    7   19 1
    19    7   20 1
    20    8   21 1
