@<TRIPOS>MOLECULE
ethyl 4-hydroxybenzoate
   22    22     0     0     0
SMALL
USER_CHARGES

@<TRIPOS>ATOM
      1 C1         -0.8748   -1.0350   -3.9103 C.3       1 MOL        -0.1001
      2 C2          0.5839   -1.0128   -3.5063 C.3       1 MOL         0.1355
      3 O1          0.6724   -1.0309   -2.0775 O.3       1 MOL        -0.4397
      4 C3          1.9295   -1.0140   -1.5659 C.2       1 MOL         0.6518
      5 O2          2.9704   -0.9853   -2.2039 O.2       1 MOL        -0.5419
      6 C4          1.8851   -1.0363   -0.1124 C.ar      1 MOL        -0.1706
      7 C5          2.9210   -1.6309    0.6081 C.ar      1 MOL        -0.0362
      8 C6          2.8783   -1.6520    2.0022 C.ar      1 MOL        -0.2027
      9 C7          1.7997   -1.0786    2.6757 C.ar      1 MOL         0.1563
     10 C8          0.7638   -0.4841    1.9551 C.ar      1 MOL        -0.2027
     11 C9          0.8066   -0.4630    0.5610 C.ar      1 MOL        -0.0362
     12 O3          1.7572   -1.0988    4.0360 O.3       1 MOL        -0.4906
     13 H1         -0.9784   -1.0220   -4.9989 H         1 MOL         0.0472
     14 H2         -1.3702   -1.9295   -3.5187 H         1 MOL         0.0472
     15 H3         -1.4035   -0.1707   -3.4948 H         1 MOL         0.0472
     16 H4          1.0714   -0.1066   -3.8781 H         1 MOL         0.0503
     17 H5          1.1056   -1.8889   -3.9028 H         1 MOL         0.0503
     18 H6          3.7661   -2.0813    0.0940 H         1 MOL         0.1565
     19 H7          3.6886   -2.1157    2.5579 H         1 MOL         0.1489
     20 H8         -0.0793   -0.0363    2.4742 H         1 MOL         0.1489
     21 H9         -0.0055    0.0036    0.0092 H         1 MOL         0.1565
     22 H10         2.5434   -1.5438    4.3905 H         1 MOL         0.4241
@<TRIPOS>BOND
     1    1    2 1
     2    2    3 1
     3    3    4 1
     4    4    5 2
     5    4    6 1
     6    6   11 ar
     7    6    7 ar
     8    7    8 ar
     9    8    9 ar
    10    9   10 ar
    11   10   11 ar
    12    9   12 1
    13    1   13 1
    14    1   14 1
    15    1   15 1
    16    2   16 1
    17    2   17 1
    18    7   18 1
    19    8   19 1
    20   10   20 1
    21   11   21 1
    22   12   22 1
