@<TRIPOS>MOLECULE
isobutylbenzene
   24    24     0     0     0
SMALL
USER_CHARGES

@<TRIPOS>ATOM
      1 C1          0.1917   -0.1014    0.9400 C.3       1 MOL        -0.0919
      2 C2         -0.6434    0.6475    1.9816 C.3       1 MOL        -0.0628
      3 C3         -0.0721    0.3940    3.3790 C.3       1 MOL        -0.0919
      4 C4         -0.6900    2.1628    1.7040 C.3       1 MOL        -0.0342
      5 C5         -1.2871    2.5197    0.3646 C.ar      1 MOL        -0.0742
      6 C6         -0.4666    2.6262   -0.7585 C.ar      1 MOL        -0.1280
      7 C7         -1.0182    2.9562   -1.9964 C.ar      1 MOL        -0.1295
      8 C8         -2.3903    3.1797   -2.1113 C.ar      1 MOL        -0.1330
      9 C9         -3.2107    3.0733   -0.9883 C.ar      1 MOL        -0.1295
     10 C10        -2.6591    2.7433    0.2497 C.ar      1 MOL        -0.1280
     11 H1         -0.1950    0.0620   -0.0717 H         1 MOL         0.0349
     12 H2          0.1965   -1.1786    1.1332 H         1 MOL         0.0349
     13 H3          1.2330    0.2378    0.9617 H         1 MOL         0.0349
     14 H4         -1.6618    0.2391    1.9586 H         1 MOL         0.0491
     15 H5         -0.6564    0.9220    4.1401 H         1 MOL         0.0349
     16 H6         -0.0812   -0.6735    3.6247 H         1 MOL         0.0349
     17 H7          0.9614    0.7496    3.4473 H         1 MOL         0.0349
     18 H8          0.3182    2.5893    1.7889 H         1 MOL         0.0470
     19 H9         -1.2868    2.6637    2.4783 H         1 MOL         0.0470
     20 H10         0.6034    2.4541   -0.6779 H         1 MOL         0.1305
     21 H11        -0.3794    3.0389   -2.8708 H         1 MOL         0.1297
     22 H12        -2.8200    3.4366   -3.0752 H         1 MOL         0.1301
     23 H13        -4.2789    3.2478   -1.0776 H         1 MOL         0.1297
     24 H14        -3.3065    2.6623    1.1189 H         1 MOL         0.1305
@<TRIPOS>BOND
     1    1    2 1
     2    2    3 1
     3    2    4 1
     4    4    5 1
     5    5   10 ar
     6    5    6 ar
     7    6    7 ar
     8    7    8 ar
     9    8    9 ar
    10    9   10 ar
    11    1   11 1
    12    1   12 1
    13    1   13 1
    14    2   14 1
    15    3   15 1
    16    3   16 1
    17    3   17 1
    18    4   18 1
    19    4   19 1
    20    6   20 1
    21    7   21 1
    22    8   22 1
    23    9   23 1
    24   10   24 1
