@<TRIPOS>MOLECULE
hexan-1-ol
   21    20     0     0     0
SMALL
USER_CHARGES

@<TRIPOS>ATOM
      1 C1          1.7561   -1.3904    0.8917 C.3       1 MOL        -0.0920
      2 C2          1.1577   -1.8697    2.2056 C.3       1 MOL        -0.0798
      3 C3         -0.1230   -1.1065    2.5457 C.3       1 MOL        -0.0790
      4 C4         -0.7660   -1.5523    3.8620 C.3       1 MOL        -0.0788
      5 C5         -2.0456   -0.7898    4.2020 C.3       1 MOL        -0.0844
      6 C6         -2.6476   -1.2671    5.5170 C.3       1 MOL         0.1325
      7 O1         -3.8301   -0.5236    5.7776 O.3       1 MOL        -0.6016
      8 H1          2.6706   -1.9479    0.6661 H         1 MOL         0.0331
      9 H2          1.0549   -1.5384    0.0642 H         1 MOL         0.0331
     10 H3          2.0105   -0.3268    0.9409 H         1 MOL         0.0331
     11 H4          1.8950   -1.7365    3.0056 H         1 MOL         0.0380
     12 H5          0.9526   -2.9424    2.1254 H         1 MOL         0.0380
     13 H6         -0.8464   -1.2130    1.7282 H         1 MOL         0.0414
     14 H7          0.1084   -0.0368    2.6242 H         1 MOL         0.0414
     15 H8         -0.0356   -1.4015    4.6668 H         1 MOL         0.0393
     16 H9         -0.9747   -2.6284    3.8233 H         1 MOL         0.0393
     17 H10        -2.7918   -0.9089    3.4080 H         1 MOL         0.0551
     18 H11        -1.8415    0.2862    4.2659 H         1 MOL         0.0551
     19 H12        -2.9083   -2.3289    5.4642 H         1 MOL         0.0189
     20 H13        -1.9496   -1.1119    6.3459 H         1 MOL         0.0189
     21 H14        -4.1875   -0.8509    6.6190 H         1 MOL         0.3984
@<TRIPOS>BOND
     1    1    2 1
     2    2    3 1
     3    3    4 1
     4    4    5 1
     5    5    6 1
     6    6    7 1
     7    1    8 1
     8    1    9 1
     9    1   10 1
    10    2   11 1
    11    2   12 1
    12    3   13 1
    13    3   14 1
    14    4   15 1
    15    4   16 1
    16    5   17 1
    17    5   18 1
    18    6   19 1
    19    6   20 1
    20    7   21 1
