@<TRIPOS>MOLECULE
methylsulfanylbenzene
   16    16     0     0     0
SMALL
USER_CHARGES

@<TRIPOS>ATOM
      1 C1          1.9859   -2.7830   -2.2370 C.3       1 MOL        -0.0540
      2 S1          1.9404   -1.0078   -1.8936 S.3       1 MOL        -0.2238
      3 C2          1.8851   -1.0363   -0.1124 C.ar      1 MOL        -0.0218
      4 C3          2.9210   -1.6309    0.6081 C.ar      1 MOL        -0.0939
      5 C4          2.8783   -1.6520    2.0022 C.ar      1 MOL        -0.1380
      6 C5          1.7997   -1.0786    2.6757 C.ar      1 MOL        -0.1124
      7 C6          0.7638   -0.4841    1.9551 C.ar      1 MOL        -0.1380
      8 C7          0.8066   -0.4630    0.5610 C.ar      1 MOL        -0.0939
      9 H1          2.0230   -2.9521   -3.3159 H         1 MOL         0.0644
     10 H2          1.0913   -3.2623   -1.8317 H         1 MOL         0.0644
     11 H3          2.8704   -3.2279   -1.7748 H         1 MOL         0.0644
     12 H4          3.7705   -2.0818    0.1009 H         1 MOL         0.1405
     13 H5          3.6851   -2.1134    2.5642 H         1 MOL         0.1344
     14 H6          1.7685   -1.0925    3.7612 H         1 MOL         0.1330
     15 H7         -0.0755   -0.0363    2.4792 H         1 MOL         0.1344
     16 H8         -0.0096    0.0059    0.0166 H         1 MOL         0.1405
@<TRIPOS>BOND
     1    1    2 1
     2    2    3 1
     3    3    8 ar
     4    3    4 ar
     5    4    5 ar
     6    5    6 ar
     7    6    7 ar
     8    7    8 ar
     9    1    9 1
    10    1   10 1
    11    1   11 1
    12    4   12 1
    13    5   13 1
    14    6   14 1
    15    7   15 1
    16    8   16 1
