@<TRIPOS>MOLECULE
2-chloro-N-(2,6-diethylphenyl)-N-(methoxymethyl)acetamide
   38    38     0     0     0
SMALL
USER_CHARGES

@<TRIPOS>ATOM
      1 C1          1.7535    0.6237   -4.1878 C.3       1 MOL        -0.0960
      2 C2          0.3770    0.0313   -3.9279 C.3       1 MOL        -0.0371
      3 C3          0.4587   -1.3983   -3.5000 C.ar      1 MOL        -0.0483
      4 C4          0.4276   -2.3939   -4.4766 C.ar      1 MOL        -0.1337
      5 C5          0.5030   -3.7366   -4.1063 C.ar      1 MOL        -0.1175
      6 C6          0.6094   -4.0837   -2.7595 C.ar      1 MOL        -0.1337
      7 C7          0.6404   -3.0881   -1.7830 C.ar      1 MOL        -0.0483
      8 C8          0.5650   -1.7454   -2.1533 C.ar      1 MOL         0.0545
      9 N1          0.5978   -0.7115   -1.1389 N.am      1 MOL        -0.4062
     10 C9          1.8988   -0.1512   -0.7255 C.3       1 MOL         0.3024
     11 O1          2.0811   -0.3843    0.6691 O.3       1 MOL        -0.4207
     12 C10         3.3213    0.1344    1.1293 C.3       1 MOL         0.1168
     13 C11        -0.6198   -0.2646   -0.5696 C.2       1 MOL         0.6631
     14 O2         -0.7064    0.6073    0.2980 O.2       1 MOL        -0.5539
     15 C12        -1.8737   -0.9141   -1.1321 C.3       1 MOL        -0.0513
     16 Cl1        -3.3279   -0.2720   -0.3400 Cl        1 MOL        -0.1329
     17 C13         0.7548   -3.4919   -0.3485 C.3       1 MOL        -0.0371
     18 C14         2.2065   -3.5958    0.1081 C.3       1 MOL        -0.0960
     19 H1          1.6829    1.6710   -4.5006 H         1 MOL         0.0409
     20 H2          2.2614    0.0664   -4.9811 H         1 MOL         0.0409
     21 H3          2.3797    0.5827   -3.2901 H         1 MOL         0.0409
     22 H4         -0.2376    0.1114   -4.8327 H         1 MOL         0.0452
     23 H5         -0.1395    0.6180   -3.1584 H         1 MOL         0.0452
     24 H6          0.3460   -2.1338   -5.5288 H         1 MOL         0.1331
     25 H7          0.4787   -4.5120   -4.8666 H         1 MOL         0.1315
     26 H8          0.6685   -5.1324   -2.4812 H         1 MOL         0.1331
     27 H9          1.9287    0.9240   -0.9212 H         1 MOL         0.0327
     28 H10         2.7113   -0.5972   -1.3117 H         1 MOL         0.0327
     29 H11         3.4206   -0.0644    2.1975 H         1 MOL         0.0388
     30 H12         3.3554    1.2084    0.9389 H         1 MOL         0.0388
     31 H13         4.1299   -0.3593    0.5884 H         1 MOL         0.0388
     32 H14        -1.8533   -1.9907   -0.9463 H         1 MOL         0.0852
     33 H15        -1.9690   -0.7065   -2.2003 H         1 MOL         0.0852
     34 H16         0.2241   -2.7721    0.2932 H         1 MOL         0.0452
     35 H17         0.2532   -4.4578   -0.1835 H         1 MOL         0.0452
     36 H18         2.2680   -3.8924    1.1606 H         1 MOL         0.0409
     37 H19         2.7155   -2.6333   -0.0032 H         1 MOL         0.0409
     38 H20         2.7528   -4.3388   -0.4828 H         1 MOL         0.0409
@<TRIPOS>BOND
     1    1    2 1
     2    2    3 1
     3    3    8 ar
     4    3    4 ar
     5    4    5 ar
     6    5    6 ar
     7    6    7 ar
     8    7    8 ar
     9    8    9 1
    10    9   10 1
    11   10   11 1
    12   11   12 1
    13    9   13 am
    14   13   14 2
    15   13   15 1
    16   15   16 1
    17    7   17 1
    18   17   18 1
    19    1   19 1
    20    1   20 1
    21    1   21 1
    22    2   22 1
    23    2   23 1
    24    4   24 1
    25    5   25 1
    26    6   26 1
    27   10   27 1
    28   10   28 1
    29   12   29 1
    30   12   30 1
    31   12   31 1
    32   15   32 1
    33   15   33 1
    34   17   34 1
    35   17   35 1
    36   18   36 1
    37   18   37 1
    38   18   38 1
