@<TRIPOS>MOLECULE
2-methylbutane
   17    16     0     0     0
SMALL
USER_CHARGES

@<TRIPOS>ATOM
      1 C1         -0.2303   -0.8989   -0.6919 C.3       1 MOL        -0.0919
      2 C2          0.4312   -0.6227   -2.0345 C.3       1 MOL        -0.0761
      3 C3          1.9539   -0.4226   -1.9410 C.3       1 MOL        -0.0665
      4 C4          2.6687   -1.6484   -1.3707 C.3       1 MOL        -0.0899
      5 C5          2.5201   -0.0904   -3.3235 C.3       1 MOL        -0.0899
      6 H1         -1.3089   -1.0315   -0.8259 H         1 MOL         0.0327
      7 H2         -0.0752   -0.0667    0.0020 H         1 MOL         0.0327
      8 H3          0.1589   -1.8119   -0.2323 H         1 MOL         0.0327
      9 H4          0.2003   -1.4445   -2.7233 H         1 MOL         0.0374
     10 H5         -0.0236    0.2810   -2.4589 H         1 MOL         0.0374
     11 H6          2.1567    0.4305   -1.2810 H         1 MOL         0.0445
     12 H7          3.7501   -1.4860   -1.3123 H         1 MOL         0.0328
     13 H8          2.4895   -2.5358   -1.9852 H         1 MOL         0.0328
     14 H9          2.3064   -1.8746   -0.3620 H         1 MOL         0.0328
     15 H10         3.6047    0.0572   -3.2841 H         1 MOL         0.0328
     16 H11         2.0676    0.8248   -3.7201 H         1 MOL         0.0328
     17 H12         2.3131   -0.8981   -4.0335 H         1 MOL         0.0328
@<TRIPOS>BOND
     1    1    2 1
     2    2    3 1
     3    3    4 1
     4    3    5 1
     5    1    6 1
     6    1    7 1
     7    1    8 1
     8    2    9 1
     9    2   10 1
    10    3   11 1
    11    4   12 1
    12    4   13 1
    13    4   14 1
    14    5   15 1
    15    5   16 1
    16    5   17 1
