@<TRIPOS>MOLECULE
3,4-dichlorophenol
   13    13     0     0     0
SMALL
USER_CHARGES

@<TRIPOS>ATOM
      1 C1          1.8851   -1.0363   -0.1124 C.ar      1 MOL        -0.2084
      2 C2          2.9210   -1.6309    0.6081 C.ar      1 MOL        -0.0765
      3 C3          2.8783   -1.6520    2.0022 C.ar      1 MOL        -0.0200
      4 C4          1.7997   -1.0786    2.6757 C.ar      1 MOL         0.0520
      5 C5          0.7638   -0.4841    1.9551 C.ar      1 MOL        -0.1481
      6 C6          0.8066   -0.4630    0.5610 C.ar      1 MOL         0.1356
      7 O1         -0.2037    0.1173   -0.1425 O.3       1 MOL        -0.4897
      8 Cl1         1.6891   -1.0733    4.4008 Cl        1 MOL        -0.0642
      9 Cl2         4.1918   -2.4028    2.8381 Cl        1 MOL        -0.0695
     10 H1          1.9240   -1.0229   -1.1984 H         1 MOL         0.1407
     11 H2          3.7541   -2.0727    0.0674 H         1 MOL         0.1541
     12 H3         -0.0819   -0.0340    2.4702 H         1 MOL         0.1699
     13 H4         -0.0307    0.0523   -1.0953 H         1 MOL         0.4241
@<TRIPOS>BOND
     1    1    6 ar
     2    1    2 ar
     3    2    3 ar
     4    3    4 ar
     5    4    5 ar
     6    5    6 ar
     7    6    7 1
     8    4    8 1
     9    3    9 1
    10    1   10 1
    11    2   11 1
    12    5   12 1
    13    7   13 1
