@<TRIPOS>MOLECULE
pyrene
   26    29     0     0     0
SMALL
USER_CHARGES

@<TRIPOS>ATOM
      1 C1          5.0009    4.9505    4.0349 C.ar      1 MOL        -0.1274
      2 C2          5.3099    4.5612    2.7327 C.ar      1 MOL        -0.1139
      3 C3          4.4555    3.7058    2.0218 C.ar      1 MOL        -0.0333
      4 C4          4.7481    3.3027    0.7120 C.ar      1 MOL        -0.1145
      5 C5          3.8872    2.4505    0.0174 C.ar      1 MOL        -0.1145
      6 C6          2.7103    1.9783    0.6137 C.ar      1 MOL        -0.0333
      7 C7          1.8355    1.1218   -0.0706 C.ar      1 MOL        -0.1139
      8 C8          0.6697    0.6630    0.5403 C.ar      1 MOL        -0.1273
      9 C9          0.3606    1.0524    1.8425 C.ar      1 MOL        -0.1139
     10 C10         1.2150    1.9078    2.5533 C.ar      1 MOL        -0.0333
     11 C11         2.3984    2.3744    1.9351 C.ar      1 MOL        -0.0154
     12 C12         3.2721    3.2392    2.6400 C.ar      1 MOL        -0.0154
     13 C13         2.9602    3.6354    3.9615 C.ar      1 MOL        -0.0333
     14 C14         3.8351    4.4917    4.6458 C.ar      1 MOL        -0.1139
     15 C15         1.7833    3.1630    4.5578 C.ar      1 MOL        -0.1145
     16 C16         0.9225    2.3109    3.8632 C.ar      1 MOL        -0.1145
     17 H1          5.6703    5.6134    4.5754 H         1 MOL         0.1330
     18 H2          6.2255    4.9328    2.2776 H         1 MOL         0.1336
     19 H3          5.6526    3.6487    0.2159 H         1 MOL         0.1330
     20 H4          4.1479    2.1593   -0.9982 H         1 MOL         0.1330
     21 H5          2.0548    0.8037   -1.0877 H         1 MOL         0.1336
     22 H6          0.0003    0.0001   -0.0005 H         1 MOL         0.1330
     23 H7         -0.5553    0.6810    2.2973 H         1 MOL         0.1336
     24 H8          3.6160    4.8096    5.6629 H         1 MOL         0.1336
     25 H9          1.5226    3.4542    5.5735 H         1 MOL         0.1330
     26 H10         0.0181    1.9649    4.3591 H         1 MOL         0.1330
@<TRIPOS>BOND
     1    1   14 ar
     2    1    2 ar
     3    2    3 ar
     4    3   12 ar
     5    3    4 ar
     6    4    5 ar
     7    5    6 ar
     8    6   11 ar
     9    6    7 ar
    10    7    8 ar
    11    8    9 ar
    12    9   10 ar
    13   10   16 ar
    14   10   11 ar
    15   11   12 ar
    16   12   13 ar
    17   13   14 ar
    18   13   15 ar
    19   15   16 ar
    20    1   17 1
    21    2   18 1
    22    4   19 1
    23    5   20 1
    24    7   21 1
    25    8   22 1
    26    9   23 1
    27   14   24 1
    28   15   25 1
    29   16   26 1
