@<TRIPOS>MOLECULE
3-ethylpyridine
   17    17     0     0     0
SMALL
USER_CHARGES

@<TRIPOS>ATOM
      1 C1          2.6688    0.9365    4.5561 C.3       1 MOL        -0.0902
      2 C2          2.8852   -0.2665    3.6509 C.3       1 MOL        -0.0349
      3 C3          1.6520   -0.6227    2.8997 C.ar      1 MOL        -0.1919
      4 C4          1.3879   -0.0684    1.6522 C.ar      1 MOL        -0.0937
      5 C5          0.2265   -0.4197    0.9733 C.ar      1 MOL        -0.2437
      6 C6         -0.6317   -1.3224    1.5803 C.ar      1 MOL         0.3887
      7 N1         -0.4092   -1.8816    2.7908 N.ar      1 MOL        -0.6635
      8 C7          0.7299   -1.5161    3.4206 C.ar      1 MOL         0.3958
      9 H1          3.5822    1.1907    5.1045 H         1 MOL         0.0378
     10 H2          1.8827    0.7232    5.2871 H         1 MOL         0.0378
     11 H3          2.3665    1.8178    3.9802 H         1 MOL         0.0378
     12 H4          3.2146   -1.1252    4.2485 H         1 MOL         0.0486
     13 H5          3.6996   -0.0581    2.9463 H         1 MOL         0.0486
     14 H6          2.0808    0.6373    1.2020 H         1 MOL         0.1375
     15 H7         -0.0000   -0.0001   -0.0002 H         1 MOL         0.1426
     16 H8         -1.5507   -1.6289    1.0916 H         1 MOL         0.0208
     17 H9          0.8820   -1.9806    4.3900 H         1 MOL         0.0218
@<TRIPOS>BOND
     1    1    2 1
     2    2    3 1
     3    3    8 ar
     4    3    4 ar
     5    4    5 ar
     6    5    6 ar
     7    6    7 ar
     8    7    8 ar
     9    1    9 1
    10    1   10 1
    11    1   11 1
    12    2   12 1
    13    2   13 1
    14    4   14 1
    15    5   15 1
    16    6   16 1
    17    8   17 1
