@<TRIPOS>MOLECULE
3-(dimethoxyphosphinothioylsulfanylmethyl)-1,2,3-benzotriazin-4-one
   31    32     0     0     0
SMALL
USER_CHARGES

@<TRIPOS>ATOM
      1 C1          0.8986    0.3180    0.1368 C.3       1 MOL         0.1273
      2 O1          1.1462   -1.0764    0.0649 O.3       1 MOL        -0.4976
      3 P1          2.0715   -1.6911   -1.1352 P.3       1 MOL         0.8579
      4 S1          1.3288   -1.3170   -2.9124 S.2       1 MOL        -0.4255
      5 O2          1.9403   -3.2711   -0.7343 O.3       1 MOL        -0.4976
      6 C2          2.5953   -4.2636   -1.5068 C.3       1 MOL         0.1273
      7 S2          4.0770   -1.1109   -0.7259 S.3       1 MOL        -0.3954
      8 C3          4.4611   -1.8275    0.8832 C.3       1 MOL         0.3289
      9 N1          5.8004   -1.5040    1.2749 N.am      1 MOL        -0.2765
     10 C4          6.8364   -2.3674    0.9101 C.2       1 MOL         0.6939
     11 O3          6.6918   -3.4025    0.2668 O.2       1 MOL        -0.5969
     12 C5          8.1742   -1.9695    1.3481 C.ar      1 MOL        -0.1655
     13 C6          9.3032   -2.7399    1.0529 C.ar      1 MOL        -0.0647
     14 C7         10.5553   -2.3160    1.4931 C.ar      1 MOL        -0.1306
     15 C8         10.6720   -1.1337    2.2207 C.ar      1 MOL        -0.0985
     16 C9          9.5351   -0.3749    2.5078 C.ar      1 MOL        -0.0939
     17 C10         8.2708   -0.7886    2.0715 C.ar      1 MOL         0.1103
     18 N2          7.1576    0.0005    2.3785 N.2       1 MOL        -0.2277
     19 N3          6.0213   -0.3534    1.9976 N.2       1 MOL         0.0273
     20 H1          0.2647    0.5321    1.0008 H         1 MOL         0.0667
     21 H2          0.4061    0.6493   -0.7809 H         1 MOL         0.0667
     22 H3          1.8504    0.8428    0.2470 H         1 MOL         0.0667
     23 H4          2.3884   -5.2485   -1.0831 H         1 MOL         0.0667
     24 H5          3.6706   -4.0721   -1.5074 H         1 MOL         0.0667
     25 H6          2.2174   -4.2211   -2.5303 H         1 MOL         0.0667
     26 H7          4.3711   -2.9159    0.8449 H         1 MOL         0.0904
     27 H8          3.7804   -1.4365    1.6435 H         1 MOL         0.0904
     28 H9          9.2258   -3.6635    0.4866 H         1 MOL         0.1648
     29 H10        11.4391   -2.9063    1.2696 H         1 MOL         0.1459
     30 H11        11.6470   -0.8014    2.5650 H         1 MOL         0.1447
     31 H12         9.6430    0.5458    3.0766 H         1 MOL         0.1612
@<TRIPOS>BOND
     1    1    2 1
     2    2    3 1
     3    3    4 2
     4    3    5 1
     5    5    6 1
     6    3    7 1
     7    7    8 1
     8    8    9 1
     9    9   19 1
    10    9   10 am
    11   10   11 2
    12   10   12 1
    13   12   17 ar
    14   12   13 ar
    15   13   14 ar
    16   14   15 ar
    17   15   16 ar
    18   16   17 ar
    19   17   18 1
    20   18   19 2
    21    1   20 1
    22    1   21 1
    23    1   22 1
    24    6   23 1
    25    6   24 1
    26    6   25 1
    27    8   26 1
    28    8   27 1
    29   13   28 1
    30   14   29 1
    31   15   30 1
    32   16   31 1
