@<TRIPOS>MOLECULE
N-propylpropan-1-amine
   22    21     0     0     0
SMALL
USER_CHARGES

@<TRIPOS>ATOM
      1 C1          1.1129    2.1047    0.4933 C.3       1 MOL        -0.0925
      2 C2          1.3143    1.3533   -0.8149 C.3       1 MOL        -0.0837
      3 C3          2.6189    1.7221   -1.5111 C.3       1 MOL         0.1691
      4 N1          2.8015    1.0088   -2.7448 N.3       1 MOL        -0.8302
      5 C4          4.0584    1.3745   -3.3999 C.3       1 MOL         0.1691
      6 C5          4.2453    0.6200   -4.6989 C.3       1 MOL        -0.0837
      7 C6          5.5427    0.9723   -5.4128 C.3       1 MOL        -0.0925
      8 H1          0.1691    1.8188    0.9685 H         1 MOL         0.0340
      9 H2          1.9257    1.8736    1.1894 H         1 MOL         0.0340
     10 H3          1.1050    3.1875    0.3345 H         1 MOL         0.0340
     11 H4          0.4780    1.5853   -1.4845 H         1 MOL         0.0450
     12 H5          1.2839    0.2749   -0.6192 H         1 MOL         0.0450
     13 H6          2.6247    2.7891   -1.7547 H         1 MOL         0.0261
     14 H7          3.4829    1.5137   -0.8723 H         1 MOL         0.0261
     15 H8          2.0303    1.2123   -3.3908 H         1 MOL         0.3560
     16 H9          4.8419    1.1298   -2.6875 H         1 MOL         0.0261
     17 H10         4.0285    2.4510   -3.5446 H         1 MOL         0.0261
     18 H11         4.2523   -0.4516   -4.4681 H         1 MOL         0.0450
     19 H12         3.4015    0.8007   -5.3754 H         1 MOL         0.0450
     20 H13         5.6426    0.4084   -6.3457 H         1 MOL         0.0340
     21 H14         5.5596    2.0389   -5.6587 H         1 MOL         0.0340
     22 H15         6.4138    0.7589   -4.7857 H         1 MOL         0.0340
@<TRIPOS>BOND
     1    1    2 1
     2    2    3 1
     3    3    4 1
     4    4    5 1
     5    5    6 1
     6    6    7 1
     7    1    8 1
     8    1    9 1
     9    1   10 1
    10    2   11 1
    11    2   12 1
    12    3   13 1
    13    3   14 1
    14    4   15 1
    15    5   16 1
    16    5   17 1
    17    6   18 1
    18    6   19 1
    19    7   20 1
    20    7   21 1
    21    7   22 1
