@<TRIPOS>MOLECULE
N-methylaniline
   17    17     0     0     0
SMALL
USER_CHARGES

@<TRIPOS>ATOM
      1 C1          3.0052   -1.5813   -2.2994 C.3       1 MOL         0.2209
      2 N1          1.9290   -1.0140   -1.5220 N.pl3     1 MOL        -0.8068
      3 C2          1.8851   -1.0363   -0.1124 C.ar      1 MOL         0.1996
      4 C3          2.9210   -1.6309    0.6081 C.ar      1 MOL        -0.2113
      5 C4          2.8783   -1.6520    2.0022 C.ar      1 MOL        -0.0842
      6 C5          1.7997   -1.0786    2.6757 C.ar      1 MOL        -0.1885
      7 C6          0.7638   -0.4841    1.9551 C.ar      1 MOL        -0.0842
      8 C7          0.8066   -0.4630    0.5610 C.ar      1 MOL        -0.2113
      9 H1          2.8131   -1.4403   -3.3662 H         1 MOL         0.0325
     10 H2          3.0944   -2.6520   -2.0964 H         1 MOL         0.0325
     11 H3          3.9516   -1.0965   -2.0451 H         1 MOL         0.0325
     12 H4          1.1623   -0.5736   -2.0182 H         1 MOL         0.4300
     13 H5          3.7666   -2.0796    0.0935 H         1 MOL         0.1281
     14 H6          3.6851   -2.1139    2.5639 H         1 MOL         0.1260
     15 H7          1.7657   -1.0953    3.7611 H         1 MOL         0.1299
     16 H8         -0.0755   -0.0368    2.4794 H         1 MOL         0.1260
     17 H9         -0.0061    0.0030    0.0092 H         1 MOL         0.1281
@<TRIPOS>BOND
     1    1    2 1
     2    2    3 1
     3    3    8 ar
     4    3    4 ar
     5    4    5 ar
     6    5    6 ar
     7    6    7 ar
     8    7    8 ar
     9    1    9 1
    10    1   10 1
    11    1   11 1
    12    2   12 1
    13    4   13 1
    14    5   14 1
    15    6   15 1
    16    7   16 1
    17    8   17 1
