@<TRIPOS>MOLECULE
heptan-1-amine
   25    24     0     0     0
SMALL
USER_CHARGES

@<TRIPOS>ATOM
      1 C1          0.6869   -0.7196    0.0945 C.3       1 MOL        -0.0924
      2 C2          0.1581   -2.1002   -0.2607 C.3       1 MOL        -0.0788
      3 C3         -0.2982   -2.1672   -1.7189 C.3       1 MOL        -0.0787
      4 C4         -0.8290   -3.5588   -2.0696 C.3       1 MOL        -0.0790
      5 C5         -1.3010   -3.6830   -3.5212 C.3       1 MOL        -0.0721
      6 C6         -1.8321   -5.0752   -3.8723 C.3       1 MOL        -0.1212
      7 C7         -2.2871   -5.1382   -5.3303 C.3       1 MOL         0.1511
      8 N1         -2.7894   -6.4700   -5.6469 N.3       1 MOL        -0.9090
      9 H1          1.0111   -0.6809    1.1394 H         1 MOL         0.0327
     10 H2          1.5376   -0.4500   -0.5396 H         1 MOL         0.0327
     11 H3         -0.0946    0.0335   -0.0470 H         1 MOL         0.0327
     12 H4          0.9444   -2.8426   -0.0816 H         1 MOL         0.0378
     13 H5         -0.6790   -2.3467    0.4029 H         1 MOL         0.0378
     14 H6          0.5416   -1.9167   -2.3781 H         1 MOL         0.0393
     15 H7         -1.0774   -1.4148   -1.8843 H         1 MOL         0.0393
     16 H8         -0.0338   -4.2967   -1.9055 H         1 MOL         0.0387
     17 H9         -1.6498   -3.8242   -1.3921 H         1 MOL         0.0387
     18 H10        -2.0729   -2.9303   -3.7226 H         1 MOL         0.0416
     19 H11        -0.4528   -3.4482   -4.1765 H         1 MOL         0.0416
     20 H12        -1.0470   -5.8211   -3.6952 H         1 MOL         0.0381
     21 H13        -2.6753   -5.3294   -3.2195 H         1 MOL         0.0381
     22 H14        -3.0813   -4.4054   -5.5087 H         1 MOL         0.0519
     23 H15        -1.4534   -4.8969   -5.9989 H         1 MOL         0.0519
     24 H16        -3.7355   -6.6848   -5.4129 H         1 MOL         0.3435
     25 H17        -2.1288   -7.1764   -5.8931 H         1 MOL         0.3435
@<TRIPOS>BOND
     1    1    2 1
     2    2    3 1
     3    3    4 1
     4    4    5 1
     5    5    6 1
     6    6    7 1
     7    7    8 1
     8    1    9 1
     9    1   10 1
    10    1   11 1
    11    2   12 1
    12    2   13 1
    13    3   14 1
    14    3   15 1
    15    4   16 1
    16    4   17 1
    17    5   18 1
    18    5   19 1
    19    6   20 1
    20    6   21 1
    21    7   22 1
    22    7   23 1
    23    8   24 1
    24    8   25 1
