@<TRIPOS>MOLECULE
octanal
   25    24     0     0     0
SMALL
USER_CHARGES

@<TRIPOS>ATOM
      1 C1          1.0101   -3.8432   -1.0281 C.3       1 MOL        -0.0917
      2 C2          0.0930   -2.6479   -0.8231 C.3       1 MOL        -0.0797
      3 C3          0.8105   -1.5090   -0.0992 C.3       1 MOL        -0.0786
      4 C4         -0.1160   -0.3081    0.1050 C.3       1 MOL        -0.0773
      5 C5          0.6050    0.8305    0.8299 C.3       1 MOL        -0.0772
      6 C6         -0.2785    2.0593    1.0604 C.3       1 MOL        -0.0754
      7 C7          0.4396    3.1952    1.7832 C.3       1 MOL        -0.1977
      8 C8         -0.4496    4.3966    2.0001 C.2       1 MOL         0.5625
      9 O1         -1.6205    4.4735    1.6439 O.2       1 MOL        -0.5238
     10 H1          0.4883   -4.6537   -1.5470 H         1 MOL         0.0330
     11 H2          1.3561   -4.2254   -0.0626 H         1 MOL         0.0330
     12 H3          1.8893   -3.5666   -1.6188 H         1 MOL         0.0330
     13 H4         -0.7840   -2.9626   -0.2456 H         1 MOL         0.0387
     14 H5         -0.2681   -2.3005   -1.7981 H         1 MOL         0.0387
     15 H6          1.1739   -1.8633    0.8732 H         1 MOL         0.0376
     16 H7          1.6888   -1.2003   -0.6795 H         1 MOL         0.0376
     17 H8         -0.9938   -0.6165    0.6857 H         1 MOL         0.0415
     18 H9         -0.4759    0.0362   -0.8710 H         1 MOL         0.0415
     19 H10         1.4996    1.1214    0.2662 H         1 MOL         0.0376
     20 H11         0.9509    0.4706    1.8069 H         1 MOL         0.0376
     21 H12        -0.6709    2.4183    0.1008 H         1 MOL         0.0538
     22 H13        -1.1497    1.7492    1.6515 H         1 MOL         0.0538
     23 H14         0.7856    2.8627    2.7677 H         1 MOL         0.0658
     24 H15         1.3074    3.5379    1.2112 H         1 MOL         0.0658
     25 H16         0.0342    5.2455    2.5136 H         1 MOL        -0.0102
@<TRIPOS>BOND
     1    1    2 1
     2    2    3 1
     3    3    4 1
     4    4    5 1
     5    5    6 1
     6    6    7 1
     7    7    8 1
     8    8    9 2
     9    1   10 1
    10    1   11 1
    11    1   12 1
    12    2   13 1
    13    2   14 1
    14    3   15 1
    15    3   16 1
    16    4   17 1
    17    4   18 1
    18    5   19 1
    19    5   20 1
    20    6   21 1
    21    6   22 1
    22    7   23 1
    23    7   24 1
    24    8   25 1
