@<TRIPOS>MOLECULE
1,4-dioxane
   14    14     0     0     0
SMALL
USER_CHARGES

@<TRIPOS>ATOM
      1 C1          0.2264   -0.9151   -1.0354 C.3       1 MOL         0.0905
      2 C2         -0.1047    0.5471   -1.2847 C.3       1 MOL         0.0905
      3 O1          0.3671    1.3411   -0.1935 O.3       1 MOL        -0.4132
      4 C3         -0.2263    0.9151    1.0354 C.3       1 MOL         0.0905
      5 C4          0.1048   -0.5471    1.2847 C.3       1 MOL         0.0905
      6 O2         -0.3672   -1.3411    0.1934 O.3       1 MOL        -0.4132
      7 H1          1.3096   -1.0719   -0.9761 H         1 MOL         0.0580
      8 H2         -0.1683   -1.5413   -1.8409 H         1 MOL         0.0580
      9 H3          0.3802    0.9005   -2.1995 H         1 MOL         0.0580
     10 H4         -1.1857    0.6970   -1.3875 H         1 MOL         0.0580
     11 H5          0.1684    1.5414    1.8410 H         1 MOL         0.0580
     12 H6         -1.3096    1.0719    0.9762 H         1 MOL         0.0580
     13 H7          1.1857   -0.6971    1.3875 H         1 MOL         0.0580
     14 H8         -0.3801   -0.9005    2.1995 H         1 MOL         0.0580
@<TRIPOS>BOND
     1    1    6 1
     2    1    2 1
     3    2    3 1
     4    3    4 1
     5    4    5 1
     6    5    6 1
     7    1    7 1
     8    1    8 1
     9    2    9 1
    10    2   10 1
    11    4   11 1
    12    4   12 1
    13    5   13 1
    14    5   14 1
