@<TRIPOS>MOLECULE
1,1,2,2,3,3,4,4-octafluorocyclobutane
   12    12     0     0     0
SMALL
USER_CHARGES

@<TRIPOS>ATOM
      1 C1          0.8301   -0.6946    0.0035 C.3       1 MOL         0.3452
      2 C2         -0.2835   -0.2971    1.0015 C.3       1 MOL         0.3452
      3 C3         -0.5974    0.8996    0.0723 C.3       1 MOL         0.3452
      4 C4          0.0509    0.0921   -1.0772 C.3       1 MOL         0.3452
      5 F1          0.8056    0.8051   -1.9415 F         1 MOL        -0.1726
      6 F2         -0.8072   -0.6442   -1.8201 F         1 MOL        -0.1726
      7 F3          0.0292    2.0561    0.3895 F         1 MOL        -0.1726
      8 F4         -1.9069    1.1929   -0.0833 F         1 MOL        -0.1726
      9 F5         -1.2835   -1.1982    1.1390 F         1 MOL        -0.1726
     10 F6          0.1319    0.0210    2.2470 F         1 MOL        -0.1726
     11 F7          0.9694   -2.0193   -0.2222 F         1 MOL        -0.1726
     12 F8          2.0615   -0.2135    0.2915 F         1 MOL        -0.1726
@<TRIPOS>BOND
     1    1    4 1
     2    1    2 1
     3    2    3 1
     4    3    4 1
     5    4    5 1
     6    4    6 1
     7    3    7 1
     8    3    8 1
     9    2    9 1
    10    2   10 1
    11    1   11 1
    12    1   12 1
