@<TRIPOS>MOLECULE
methyl benzoate
   18    18     0     0     0
SMALL
USER_CHARGES

@<TRIPOS>ATOM
      1 C1          0.5832   -1.0172   -3.5060 C.3       1 MOL         0.1258
      2 O1          0.6720   -1.0336   -2.0772 O.3       1 MOL        -0.4392
      3 C2          1.9292   -1.0155   -1.5659 C.2       1 MOL         0.6455
      4 O2          2.9699   -0.9869   -2.2041 O.2       1 MOL        -0.5363
      5 C3          1.8851   -1.0363   -0.1124 C.ar      1 MOL        -0.1306
      6 C4          2.9210   -1.6309    0.6081 C.ar      1 MOL        -0.0737
      7 C5          2.8783   -1.6520    2.0022 C.ar      1 MOL        -0.1445
      8 C6          1.7997   -1.0786    2.6757 C.ar      1 MOL        -0.0993
      9 C7          0.7638   -0.4841    1.9551 C.ar      1 MOL        -0.1445
     10 C8          0.8066   -0.4630    0.5610 C.ar      1 MOL        -0.0737
     11 H1         -0.4672   -1.0339   -3.8068 H         1 MOL         0.0502
     12 H2          1.1042   -1.8868   -3.9144 H         1 MOL         0.0502
     13 H3          1.0526   -0.1045   -3.8808 H         1 MOL         0.0502
     14 H4          3.7660   -2.0811    0.0935 H         1 MOL         0.1531
     15 H5          3.6850   -2.1145    2.5633 H         1 MOL         0.1390
     16 H6          1.7660   -1.0948    3.7610 H         1 MOL         0.1359
     17 H7         -0.0760   -0.0384    2.4800 H         1 MOL         0.1390
     18 H8         -0.0059    0.0036    0.0099 H         1 MOL         0.1531
@<TRIPOS>BOND
     1    1    2 1
     2    2    3 1
     3    3    4 2
     4    3    5 1
     5    5   10 ar
     6    5    6 ar
     7    6    7 ar
     8    7    8 ar
     9    8    9 ar
    10    9   10 ar
    11    1   11 1
    12    1   12 1
    13    1   13 1
    14    6   14 1
    15    7   15 1
    16    8   16 1
    17    9   17 1
    18   10   18 1
