@<TRIPOS>MOLECULE
2-hydroxyethyl nitrate
   12    11     0     0     0
SMALL
USER_CHARGES

@<TRIPOS>ATOM
      1 C1         -2.1461   -0.1936   -0.1209 C.3       1 MOL         0.1315
      2 C2         -0.8936    0.4506    0.4416 C.3       1 MOL         0.1186
      3 O1         -0.8526    0.2362    1.8472 O.3       1 MOL        -0.3372
      4 N1          0.2900    0.8045    2.4748 N.pl3     1 MOL         0.3760
      5 O2          1.0970    1.4026    1.7594 O.2       1 MOL        -0.1824
      6 O3          0.3129    0.6112    3.6910 O.3       1 MOL        -0.1824
      7 O4         -2.1145   -1.5886    0.1552 O.3       1 MOL        -0.5927
      8 H1         -2.2043   -0.0621   -1.2059 H         1 MOL         0.0494
      9 H2         -3.0385    0.2289    0.3500 H         1 MOL         0.0494
     10 H3         -0.8901    1.5299    0.2612 H         1 MOL         0.0786
     11 H4          0.0000    0.0000    0.0000 H         1 MOL         0.0786
     12 H5         -2.9276   -1.9652   -0.2177 H         1 MOL         0.4127
@<TRIPOS>BOND
     1    1    2 1
     2    2    3 1
     3    3    4 1
     4    4    5 2
     5    4    6 1
     6    1    7 1
     7    1    8 1
     8    1    9 1
     9    2   10 1
    10    2   11 1
    11    7   12 1
