@<TRIPOS>MOLECULE
1,4-dimethylcyclohexane
   24    24     0     0     0
SMALL
USER_CHARGES

@<TRIPOS>ATOM
      1 C1         -0.6220   -2.5762    0.6708 C.3       1 MOL        -0.0891
      2 C2          0.4196   -1.6683    1.3218 C.3       1 MOL        -0.0650
      3 C3          0.8696   -0.5734    0.3461 C.3       1 MOL        -0.0723
      4 C4          1.8746    0.3795    0.9910 C.3       1 MOL        -0.0723
      5 C5          1.3236    0.9946    2.2837 C.3       1 MOL        -0.0650
      6 C6          0.8743   -0.1004    3.2593 C.3       1 MOL        -0.0723
      7 C7         -0.1309   -1.0531    2.6146 C.3       1 MOL        -0.0723
      8 C8          2.3642    1.9035    2.9349 C.3       1 MOL        -0.0891
      9 H1         -0.2277   -3.0141   -0.2511 H         1 MOL         0.0330
     10 H2         -0.8996   -3.3898    1.3475 H         1 MOL         0.0330
     11 H3         -1.5250   -2.0098    0.4241 H         1 MOL         0.0330
     12 H4          1.2922   -2.2847    1.5765 H         1 MOL         0.0456
     13 H5          1.3235   -1.0283   -0.5425 H         1 MOL         0.0385
     14 H6         -0.0001   -0.0004    0.0001 H         1 MOL         0.0385
     15 H7          2.8038   -0.1653    1.2022 H         1 MOL         0.0385
     16 H8          2.1276    1.1735    0.2783 H         1 MOL         0.0385
     17 H9          0.4507    1.6104    2.0289 H         1 MOL         0.0456
     18 H10         1.7443   -0.6736    3.6045 H         1 MOL         0.0385
     19 H11         0.4210    0.3541    4.1483 H         1 MOL         0.0385
     20 H12        -0.3844   -1.8469    3.3273 H         1 MOL         0.0385
     21 H13        -1.0599   -0.5079    2.4034 H         1 MOL         0.0385
     22 H14         1.9588    2.3320    3.8500 H         1 MOL         0.0330
     23 H15         2.6304    2.7083    2.2516 H         1 MOL         0.0330
     24 H16         3.2573    1.3290    3.1750 H         1 MOL         0.0330
@<TRIPOS>BOND
     1    1    2 1
     2    2    7 1
     3    2    3 1
     4    3    4 1
     5    4    5 1
     6    5    6 1
     7    6    7 1
     8    5    8 1
     9    1    9 1
    10    1   10 1
    11    1   11 1
    12    2   12 1
    13    3   13 1
    14    3   14 1
    15    4   15 1
    16    4   16 1
    17    5   17 1
    18    6   18 1
    19    6   19 1
    20    7   20 1
    21    7   21 1
    22    8   22 1
    23    8   23 1
    24    8   24 1
