@<TRIPOS>MOLECULE
1,2,3,4-tetrachloro-5-phenyl-benzene
   22    23     0     0     0
SMALL
USER_CHARGES

@<TRIPOS>ATOM
      1 C1          1.8851   -1.0363   -0.1124 C.ar      1 MOL        -0.1196
      2 C2          2.9210   -1.6309    0.6081 C.ar      1 MOL        -0.1305
      3 C3          2.8783   -1.6520    2.0022 C.ar      1 MOL        -0.1043
      4 C4          1.7997   -1.0786    2.6757 C.ar      1 MOL        -0.0599
      5 C5          0.7638   -0.4841    1.9551 C.ar      1 MOL        -0.1043
      6 C6          0.8066   -0.4630    0.5610 C.ar      1 MOL        -0.1305
      7 C7          1.7549   -1.1005    4.1216 C.ar      1 MOL        -0.0164
      8 C8          1.1388   -2.1911    4.7355 C.ar      1 MOL        -0.1009
      9 C9          1.0693   -2.2606    6.1269 C.ar      1 MOL         0.0204
     10 C10         1.6158   -1.2396    6.9044 C.ar      1 MOL         0.0226
     11 C11         2.2318   -0.1491    6.2905 C.ar      1 MOL         0.0196
     12 C12         2.3014   -0.0795    4.8991 C.ar      1 MOL         0.0327
     13 Cl1         3.0623    1.2750    4.1118 Cl        1 MOL        -0.0452
     14 Cl2         2.9143    1.1275    7.2598 Cl        1 MOL        -0.0396
     15 Cl3         1.5210   -1.3401    8.6397 Cl        1 MOL        -0.0397
     16 Cl4         0.2916   -3.6463    6.8138 Cl        1 MOL        -0.0556
     17 H1          1.9174   -1.0212   -1.1979 H         1 MOL         0.1335
     18 H2          3.7605   -2.0787    0.0844 H         1 MOL         0.1361
     19 H3          3.6927   -2.1196    2.5504 H         1 MOL         0.1402
     20 H4         -0.0840   -0.0332    2.4655 H         1 MOL         0.1402
     21 H5         -0.0009   -0.0015    0.0001 H         1 MOL         0.1361
     22 H6          0.7147   -2.9894    4.1287 H         1 MOL         0.1651
@<TRIPOS>BOND
     1    1    6 ar
     2    1    2 ar
     3    2    3 ar
     4    3    4 ar
     5    4    5 ar
     6    5    6 ar
     7    4    7 1
     8    7   12 ar
     9    7    8 ar
    10    8    9 ar
    11    9   10 ar
    12   10   11 ar
    13   11   12 ar
    14   12   13 1
    15   11   14 1
    16   10   15 1
    17    9   16 1
    18    1   17 1
    19    2   18 1
    20    3   19 1
    21    5   20 1
    22    6   21 1
    23    8   22 1
