@<TRIPOS>MOLECULE
2,6-dichlorobenzonitrile
   13    13     0     0     0
SMALL
USER_CHARGES

@<TRIPOS>ATOM
      1 C1          1.8851   -1.0363   -0.1124 C.ar      1 MOL        -0.0919
      2 C2          2.9210   -1.6309    0.6081 C.ar      1 MOL        -0.1320
      3 C3          2.8783   -1.6520    2.0022 C.ar      1 MOL         0.0549
      4 C4          1.7997   -1.0786    2.6757 C.ar      1 MOL        -0.0044
      5 C5          0.7638   -0.4841    1.9551 C.ar      1 MOL         0.0549
      6 C6          0.8066   -0.4630    0.5610 C.ar      1 MOL        -0.1320
      7 Cl1        -0.6017    0.2437    2.7306 Cl        1 MOL        -0.0564
      8 C7          1.7565   -1.0993    4.1111 C.1       1 MOL         0.2318
      9 N1          1.7218   -1.1160    5.2651 N.1       1 MOL        -0.3326
     10 Cl2         4.1943   -2.4046    2.8378 Cl        1 MOL        -0.0564
     11 H1          1.9182   -1.0205   -1.1977 H         1 MOL         0.1492
     12 H2          3.7541   -2.0724    0.0668 H         1 MOL         0.1575
     13 H3          0.0082   -0.0037   -0.0166 H         1 MOL         0.1575
@<TRIPOS>BOND
     1    1    6 ar
     2    1    2 ar
     3    2    3 ar
     4    3    4 ar
     5    4    5 ar
     6    5    6 ar
     7    5    7 1
     8    4    8 1
     9    8    9 3
    10    3   10 1
    11    1   11 1
    12    2   12 1
    13    6   13 1
