@<TRIPOS>MOLECULE
methyl methanesulfonate
   12    11     0     0     0
SMALL
USER_CHARGES

@<TRIPOS>ATOM
      1 C1          0.9319   -0.5584    0.1998 C.3       1 MOL         0.1644
      2 O1          1.9819    0.3849    0.3487 O.3       1 MOL        -0.5763
      3 S1          3.4454   -0.1414    0.8490 S.o2      1 MOL         1.5997
      4 O2          3.9557   -1.1138   -0.0960 O.2       1 MOL        -0.6660
      5 O3          3.4013   -0.4040    2.2732 O.2       1 MOL        -0.6660
      6 C2          4.3140    1.3852    0.5949 C.3       1 MOL        -0.3828
      7 H1          0.0274   -0.0473   -0.1390 H         1 MOL         0.0459
      8 H2          0.7470   -1.0532    1.1565 H         1 MOL         0.0459
      9 H3          1.2263   -1.3037   -0.5428 H         1 MOL         0.0459
     10 H4          5.3486    1.2262    0.8847 H         1 MOL         0.1299
     11 H5          4.2339    1.6367   -0.4586 H         1 MOL         0.1299
     12 H6          3.8415    2.1390    1.2176 H         1 MOL         0.1299
@<TRIPOS>BOND
     1    1    2 1
     2    2    3 1
     3    3    4 2
     4    3    5 2
     5    3    6 1
     6    1    7 1
     7    1    8 1
     8    1    9 1
     9    6   10 1
    10    6   11 1
    11    6   12 1
