@<TRIPOS>MOLECULE
cyclopropane
    9     9     0     0     0
SMALL
USER_CHARGES

@<TRIPOS>ATOM
      1 C1          0.5948   -0.7129    0.5570 C.3       1 MOL        -0.1365
      2 C2          2.0779   -0.4929    0.6159 C.3       1 MOL        -0.1365
      3 C3          1.5175   -1.6099   -0.2149 C.3       1 MOL        -0.1365
      4 H1          0.0003    0.0003   -0.0001 H         1 MOL         0.0683
      5 H2          0.1102   -1.1218    1.4344 H         1 MOL         0.0683
      6 H3          2.4818    0.3680    0.0983 H         1 MOL         0.0683
      7 H4          2.5909   -0.7541    1.5330 H         1 MOL         0.0683
      8 H5          1.5446   -1.5009   -1.2918 H         1 MOL         0.0683
      9 H6          1.6540   -2.6227    0.1430 H         1 MOL         0.0683
@<TRIPOS>BOND
     1    1    3 1
     2    1    2 1
     3    2    3 1
     4    1    4 1
     5    1    5 1
     6    2    6 1
     7    2    7 1
     8    3    8 1
     9    3    9 1
