@<TRIPOS>MOLECULE
1-nitropentane
   19    18     0     0     0
SMALL
USER_CHARGES

@<TRIPOS>ATOM
      1 C1          0.0743   -0.6781    0.8569 C.3       1 MOL        -0.0943
      2 C2          1.3441   -0.4153    1.6505 C.3       1 MOL        -0.0799
      3 C3          2.5932   -0.6236    0.7946 C.3       1 MOL        -0.0782
      4 C4          3.8685   -0.3582    1.5969 C.3       1 MOL        -0.0931
      5 C5          5.1078   -0.5676    0.7381 C.3       1 MOL        -0.0773
      6 N1          6.3019   -0.3033    1.5446 N.pl3     1 MOL         0.2289
      7 O1          6.8069   -1.2583    2.1675 O.2       1 MOL        -0.2102
      8 O2          6.7392    0.8641    1.5800 O.3       1 MOL        -0.2102
      9 H1         -0.8061   -0.5233    1.4883 H         1 MOL         0.0364
     10 H2          0.0004   -0.0021   -0.0009 H         1 MOL         0.0364
     11 H3          0.0495   -1.7078    0.4862 H         1 MOL         0.0364
     12 H4          1.3708   -1.0857    2.5175 H         1 MOL         0.0444
     13 H5          1.3224    0.6114    2.0343 H         1 MOL         0.0444
     14 H6          2.5596    0.0455   -0.0739 H         1 MOL         0.0463
     15 H7          2.6081   -1.6512    0.4108 H         1 MOL         0.0463
     16 H8          3.8981   -1.0244    2.4692 H         1 MOL         0.0675
     17 H9          3.8492    0.6682    1.9863 H         1 MOL         0.0675
     18 H10         5.1347    0.1179   -0.1137 H         1 MOL         0.0943
     19 H11         5.1814   -1.5979    0.3783 H         1 MOL         0.0943
@<TRIPOS>BOND
     1    1    2 1
     2    2    3 1
     3    3    4 1
     4    4    5 1
     5    5    6 1
     6    6    7 2
     7    6    8 1
     8    1    9 1
     9    1   10 1
    10    1   11 1
    11    2   12 1
    12    2   13 1
    13    3   14 1
    14    3   15 1
    15    4   16 1
    16    4   17 1
    17    5   18 1
    18    5   19 1
