@<TRIPOS>MOLECULE
pyrrole
   10    10     0     0     0
SMALL
USER_CHARGES

@<TRIPOS>ATOM
      1 C1          0.2891    0.0196    1.0414 C.2       1 MOL        -0.1966
      2 C2          1.5204    0.4727    1.5759 C.2       1 MOL        -0.1966
      3 C3          1.4575    0.3171    2.9431 C.2       1 MOL        -0.1702
      4 N1          0.2315   -0.2133    3.2493 N.pl3     1 MOL        -0.1811
      5 C4         -0.4888   -0.3990    2.0983 C.2       1 MOL        -0.1702
      6 H1         -0.0010    0.0003    0.0004 H         1 MOL         0.1500
      7 H2          2.3613    0.8687    1.0241 H         1 MOL         0.1500
      8 H3          2.1729    0.5363    3.7231 H         1 MOL         0.1621
      9 H4         -0.0916   -0.4341    4.1811 H         1 MOL         0.2904
     10 H5         -1.4869   -0.8126    2.1334 H         1 MOL         0.1621
@<TRIPOS>BOND
     1    1    5 2
     2    1    2 1
     3    2    3 2
     4    3    4 1
     5    4    5 1
     6    1    6 1
     7    2    7 1
     8    3    8 1
     9    4    9 1
    10    5   10 1
