@<TRIPOS>MOLECULE
decan-2-one
   31    30     0     0     0
SMALL
USER_CHARGES

@<TRIPOS>ATOM
      1 C1         -4.0262   -8.6527    6.5587 C.3       1 MOL        -0.0918
      2 C2         -3.7977   -7.9690    5.2203 C.3       1 MOL        -0.0791
      3 C3         -2.8518   -6.7759    5.3549 C.3       1 MOL        -0.0786
      4 C4         -2.6247   -6.0911    4.0061 C.3       1 MOL        -0.0775
      5 C5         -1.6781   -4.8972    4.1406 C.3       1 MOL        -0.0768
      6 C6         -1.4511   -4.2125    2.7917 C.3       1 MOL        -0.0766
      7 C7         -0.5048   -3.0188    2.9258 C.3       1 MOL        -0.0742
      8 C8         -0.2783   -2.3354    1.5793 C.3       1 MOL        -0.1781
      9 C9          0.6585   -1.1447    1.6810 C.2       1 MOL         0.5629
     10 O1          1.1692   -0.7854    2.7407 O.2       1 MOL        -0.5337
     11 C10         0.9364   -0.4082    0.3964 C.3       1 MOL        -0.2036
     12 H1         -4.7044   -9.5054    6.4530 H         1 MOL         0.0331
     13 H2         -4.4710   -7.9512    7.2715 H         1 MOL         0.0331
     14 H3         -3.0831   -9.0139    6.9810 H         1 MOL         0.0331
     15 H4         -4.7614   -7.6366    4.8170 H         1 MOL         0.0377
     16 H5         -3.3826   -8.6954    4.5118 H         1 MOL         0.0377
     17 H6         -1.8908   -7.1131    5.7623 H         1 MOL         0.0391
     18 H7         -3.2695   -6.0544    6.0677 H         1 MOL         0.0391
     19 H8         -2.2069   -6.8127    3.2935 H         1 MOL         0.0375
     20 H9         -3.5857   -5.7538    3.5989 H         1 MOL         0.0375
     21 H10        -0.7171   -5.2344    4.5477 H         1 MOL         0.0416
     22 H11        -2.0959   -4.1756    4.8532 H         1 MOL         0.0416
     23 H12        -2.4122   -3.8753    2.3846 H         1 MOL         0.0364
     24 H13        -1.0334   -4.9342    2.0792 H         1 MOL         0.0364
     25 H14        -0.9193   -2.2973    3.6409 H         1 MOL         0.0539
     26 H15         0.4561   -3.3533    3.3362 H         1 MOL         0.0539
     27 H16        -1.2328   -1.9790    1.1764 H         1 MOL         0.0630
     28 H17         0.1574   -3.0465    0.8686 H         1 MOL         0.0630
     29 H18         0.2000    0.3882    0.2638 H         1 MOL         0.0632
     30 H19         1.9450    0.0107    0.4262 H         1 MOL         0.0632
     31 H20         0.8648   -1.0989   -0.4484 H         1 MOL         0.0632
@<TRIPOS>BOND
     1    1    2 1
     2    2    3 1
     3    3    4 1
     4    4    5 1
     5    5    6 1
     6    6    7 1
     7    7    8 1
     8    8    9 1
     9    9   10 2
    10    9   11 1
    11    1   12 1
    12    1   13 1
    13    1   14 1
    14    2   15 1
    15    2   16 1
    16    3   17 1
    17    3   18 1
    18    4   19 1
    19    4   20 1
    20    5   21 1
    21    5   22 1
    22    6   23 1
    23    6   24 1
    24    7   25 1
    25    7   26 1
    26    8   27 1
    27    8   28 1
    28   11   29 1
    29   11   30 1
    30   11   31 1
