@<TRIPOS>MOLECULE
(2S)-2-(3-fluoro-4-phenyl-phenyl)propanoic acid
   31    32     0     0     0
SMALL
USER_CHARGES

@<TRIPOS>ATOM
      1 C1          1.9231    0.4070   -2.1729 C.3       1 MOL        -0.0883
      2 C2          1.9323   -1.0136   -1.6027 C.3       1 MOL        -0.0578
      3 H1          2.8745   -1.4892   -1.9075 H         1 MOL         0.0885
      4 C3          1.8851   -1.0363   -0.1124 C.ar      1 MOL        -0.0591
      5 C4          2.9210   -1.6309    0.6081 C.ar      1 MOL        -0.1233
      6 C5          2.8783   -1.6520    2.0022 C.ar      1 MOL        -0.0932
      7 C6          1.7997   -1.0786    2.6757 C.ar      1 MOL        -0.0627
      8 C7          0.7638   -0.4841    1.9551 C.ar      1 MOL         0.1381
      9 C8          0.8066   -0.4630    0.5610 C.ar      1 MOL        -0.1541
     10 F1         -0.2795    0.0723    2.5878 F         1 MOL        -0.1335
     11 C9          1.7601   -1.1026    4.1220 C.ar      1 MOL        -0.0499
     12 C10         0.7071   -1.7380    4.7803 C.ar      1 MOL        -0.1083
     13 C11         0.6688   -1.7612    6.1744 C.ar      1 MOL        -0.1312
     14 C12         1.6833   -1.1488    6.9103 C.ar      1 MOL        -0.1225
     15 C13         2.7361   -0.5134    6.2520 C.ar      1 MOL        -0.1312
     16 C14         2.7745   -0.4902    4.8578 C.ar      1 MOL        -0.1083
     17 C15         0.8017   -1.8308   -2.2110 C.2       1 MOL         0.6336
     18 O1         -0.2697   -1.3804   -2.5958 O.2       1 MOL        -0.5374
     19 O2          1.1075   -3.1532   -2.2851 O.3       1 MOL        -0.6108
     20 H2          1.0080    0.9486   -1.9091 H         1 MOL         0.0520
     21 H3          2.7797    0.9850   -1.8093 H         1 MOL         0.0520
     22 H4          1.9743    0.3884   -3.2672 H         1 MOL         0.0520
     23 H5          3.7651   -2.0799    0.0918 H         1 MOL         0.1413
     24 H6          3.6931   -2.1198    2.5496 H         1 MOL         0.1459
     25 H7         -0.0052    0.0022    0.0083 H         1 MOL         0.1490
     26 H8         -0.0905   -2.2207    4.2206 H         1 MOL         0.1381
     27 H9         -0.1507   -2.2569    6.6866 H         1 MOL         0.1337
     28 H10         1.6531   -1.1672    7.9958 H         1 MOL         0.1314
     29 H11         3.5253   -0.0358    6.8254 H         1 MOL         0.1337
     30 H12         3.6011    0.0104    4.3592 H         1 MOL         0.1381
     31 H13         1.9948   -3.3988   -1.9468 H         1 MOL         0.4442
@<TRIPOS>BOND
     1    1    2 1
     2    2    3 1
     3    2    4 1
     4    4    9 ar
     5    4    5 ar
     6    5    6 ar
     7    6    7 ar
     8    7    8 ar
     9    8    9 ar
    10    8   10 1
    11    7   11 1
    12   11   16 ar
    13   11   12 ar
    14   12   13 ar
    15   13   14 ar
    16   14   15 ar
    17   15   16 ar
    18    2   17 1
    19   17   18 2
    20   17   19 1
    21    1   20 1
    22    1   21 1
    23    1   22 1
    24    5   23 1
    25    6   24 1
    26    9   25 1
    27   12   26 1
    28   13   27 1
    29   14   28 1
    30   15   29 1
    31   16   30 1
    32   19   31 1
