@<TRIPOS>MOLECULE
6-chloro-N2,N4-diethyl-1,3,5-triazine-2,4-diamine
   25    25     0     0     0
SMALL
USER_CHARGES

@<TRIPOS>ATOM
      1 C1          3.3389   -0.2461    2.5405 C.3       1 MOL        -0.1271
      2 C2          3.4972   -0.5986    1.1007 C.3       1 MOL         0.2141
      3 N1          2.3152   -1.2363    0.5901 N.pl3     1 MOL        -0.8355
      4 C3          2.1748   -1.6751   -0.7209 C.ar      1 MOL         0.9262
      5 N2          3.2221   -1.4791   -1.5384 N.ar      1 MOL        -0.8353
      6 C4          3.0147   -1.9278   -2.7867 C.ar      1 MOL         0.9262
      7 N3          1.9035   -2.5226   -3.2500 N.ar      1 MOL        -0.8046
      8 C5          0.9415   -2.6510   -2.3221 C.ar      1 MOL         0.8020
      9 N4          1.0055   -2.2522   -1.0415 N.ar      1 MOL        -0.8046
     10 Cl1        -0.5111   -3.3990   -2.8207 Cl        1 MOL        -0.1142
     11 N5          4.0721   -1.7572   -3.7059 N.pl3     1 MOL        -0.8355
     12 C6          5.3134   -1.1412   -3.3546 C.3       1 MOL         0.2141
     13 C7          6.2471   -1.0932   -4.5193 C.3       1 MOL        -0.1271
     14 H1          4.2422    0.2396    2.9255 H         1 MOL         0.0472
     15 H2          2.4809    0.4188    2.6875 H         1 MOL         0.0472
     16 H3          3.1674   -1.1555    3.1289 H         1 MOL         0.0472
     17 H4          4.3345   -1.2898    0.9649 H         1 MOL         0.0591
     18 H5          3.6787    0.2972    0.4995 H         1 MOL         0.0591
     19 H6          1.5307   -1.3791    1.2216 H         1 MOL         0.4408
     20 H7          3.9200   -2.0899   -4.6388 H         1 MOL         0.4408
     21 H8          5.1016   -0.1265   -2.9973 H         1 MOL         0.0591
     22 H9          5.7568   -1.7137   -2.5316 H         1 MOL         0.0591
     23 H10         7.1942   -0.6195   -4.2388 H         1 MOL         0.0472
     24 H11         6.4461   -2.1013   -4.8988 H         1 MOL         0.0472
     25 H12         5.8037   -0.5064   -5.3327 H         1 MOL         0.0472
@<TRIPOS>BOND
     1    1    2 1
     2    2    3 1
     3    3    4 1
     4    4    9 ar
     5    4    5 ar
     6    5    6 ar
     7    6    7 ar
     8    7    8 ar
     9    8    9 ar
    10    8   10 1
    11    6   11 1
    12   11   12 1
    13   12   13 1
    14    1   14 1
    15    1   15 1
    16    1   16 1
    17    2   17 1
    18    2   18 1
    19    3   19 1
    20   11   20 1
    21   12   21 1
    22   12   22 1
    23   13   23 1
    24   13   24 1
    25   13   25 1
