@<TRIPOS>MOLECULE
isobutane
   14    13     0     0     0
SMALL
USER_CHARGES

@<TRIPOS>ATOM
      1 C1          0.6623   -0.3793   -0.7853 C.3       1 MOL        -0.0896
      2 C2          0.1007   -0.0597   -2.1688 C.3       1 MOL        -0.0705
      3 C3         -0.0690    1.4478   -2.3443 C.3       1 MOL        -0.0896
      4 C4          1.0050   -0.6288   -3.2598 C.3       1 MOL        -0.0896
      5 H1          0.7892   -1.4585   -0.6459 H         1 MOL         0.0328
      6 H2          1.6377    0.0974   -0.6422 H         1 MOL         0.0328
      7 H3         -0.0072   -0.0129    0.0000 H         1 MOL         0.0328
      8 H4         -0.8858   -0.5306   -2.2580 H         1 MOL         0.0443
      9 H5         -0.4716    1.6910   -3.3337 H         1 MOL         0.0328
     10 H6          0.8911    1.9625   -2.2337 H         1 MOL         0.0328
     11 H7         -0.7541    1.8517   -1.5914 H         1 MOL         0.0328
     12 H8          0.6134   -0.4064   -4.2584 H         1 MOL         0.0328
     13 H9          1.0919   -1.7163   -3.1645 H         1 MOL         0.0328
     14 H10         2.0126   -0.2053   -3.1894 H         1 MOL         0.0328
@<TRIPOS>BOND
     1    1    2 1
     2    2    3 1
     3    2    4 1
     4    1    5 1
     5    1    6 1
     6    1    7 1
     7    2    8 1
     8    3    9 1
     9    3   10 1
    10    3   11 1
    11    4   12 1
    12    4   13 1
    13    4   14 1
