@<TRIPOS>MOLECULE
3-tert-butyl-5-chloro-6-methyl-1H-pyrimidine-2,4-dione
   27    27     0     0     0
SMALL
USER_CHARGES

@<TRIPOS>ATOM
      1 C1         -0.4757   -0.9583    0.2358 C.3       1 MOL        -0.0867
      2 C2         -1.5588   -1.2585   -0.7630 C.2       1 MOL         0.1090
      3 C3         -1.6093   -2.3334   -1.5640 C.2       1 MOL        -0.1816
      4 C4         -2.7485   -2.5146   -2.5108 C.2       1 MOL         0.7288
      5 O1         -2.8138   -3.5177   -3.2204 O.2       1 MOL        -0.5884
      6 N1         -3.6940   -1.4779   -2.5082 N.am      1 MOL        -0.4765
      7 C5         -3.6540   -0.3601   -1.6502 C.2       1 MOL         0.8091
      8 O2         -4.5156    0.5224   -1.6266 O.2       1 MOL        -0.6452
      9 N2         -2.5557   -0.3133   -0.8087 N.am      1 MOL        -0.4737
     10 C6         -4.7957   -1.5628   -3.4602 C.3       1 MOL         0.1341
     11 C7         -4.6458   -2.8434   -4.2853 C.3       1 MOL        -0.1078
     12 C8         -6.1157   -1.5891   -2.6871 C.3       1 MOL        -0.1078
     13 C9         -4.7533   -0.3427   -4.3838 C.3       1 MOL        -0.1078
     14 Cl1        -0.4081   -3.5729   -1.5742 Cl        1 MOL        -0.0402
     15 H1         -0.7227   -1.3965    1.2064 H         1 MOL         0.0708
     16 H2         -0.3598    0.1223    0.3571 H         1 MOL         0.0708
     17 H3          0.4785   -1.3705   -0.1037 H         1 MOL         0.0708
     18 H4         -2.4796    0.4796   -0.1773 H         1 MOL         0.3543
     19 H5         -5.4575   -2.9444   -5.0151 H         1 MOL         0.0520
     20 H6         -3.6974   -2.8506   -4.8339 H         1 MOL         0.0520
     21 H7         -4.6727   -3.7334   -3.6457 H         1 MOL         0.0520
     22 H8         -6.9734   -1.6527   -3.3668 H         1 MOL         0.0520
     23 H9         -6.2440   -0.6797   -2.0885 H         1 MOL         0.0520
     24 H10        -6.1587   -2.4483   -2.0086 H         1 MOL         0.0520
     25 H11        -5.5686   -0.3703   -5.1160 H         1 MOL         0.0520
     26 H12        -4.8439    0.5878   -3.8126 H         1 MOL         0.0520
     27 H13        -3.8135   -0.3019   -4.9467 H         1 MOL         0.0520
@<TRIPOS>BOND
     1    1    2 1
     2    2    9 1
     3    2    3 2
     4    3    4 1
     5    4    5 2
     6    4    6 am
     7    6    7 am
     8    7    8 2
     9    7    9 am
    10    6   10 1
    11   10   11 1
    12   10   12 1
    13   10   13 1
    14    3   14 1
    15    1   15 1
    16    1   16 1
    17    1   17 1
    18    9   18 1
    19   11   19 1
    20   11   20 1
    21   11   21 1
    22   12   22 1
    23   12   23 1
    24   12   24 1
    25   13   25 1
    26   13   26 1
    27   13   27 1
