@<TRIPOS>MOLECULE
4-methyl-1H-imidazole
   12    12     0     0     0
SMALL
USER_CHARGES

@<TRIPOS>ATOM
      1 C1         -0.2079    0.2981    0.1233 C.3       1 MOL        -0.1137
      2 C2          0.6549   -0.7784   -0.3640 C.2       1 MOL         0.3050
      3 C3          1.9499   -0.7740   -0.8259 C.2       1 MOL        -0.2579
      4 N1          2.3537   -2.0366   -1.1813 N.pl3     1 MOL        -0.3258
      5 C4          1.3133   -2.8020   -0.9371 C.2       1 MOL         0.3889
      6 N2          0.2603   -2.0844   -0.4416 N.2       1 MOL        -0.6683
      7 H1         -0.0878    0.4138    1.2048 H         1 MOL         0.0461
      8 H2          0.0385    1.2474   -0.3639 H         1 MOL         0.0461
      9 H3         -1.2597    0.0854   -0.0955 H         1 MOL         0.0461
     10 H4          2.6449    0.0471   -0.9372 H         1 MOL         0.1757
     11 H5          3.2612   -2.2957   -1.5471 H         1 MOL         0.2986
     12 H6          1.2800   -3.8703   -1.1022 H         1 MOL         0.0591
@<TRIPOS>BOND
     1    1    2 1
     2    2    6 1
     3    2    3 2
     4    3    4 1
     5    4    5 1
     6    5    6 2
     7    1    7 1
     8    1    8 1
     9    1    9 1
    10    3   10 1
    11    4   11 1
    12    5   12 1
