@<TRIPOS>MOLECULE
1,1,1-trifluoro-2,2,2-trimethoxy-ethane
   20    19     0     0     0
SMALL
USER_CHARGES

@<TRIPOS>ATOM
      1 C1          1.2806    0.6403   -1.6563 C.3       1 MOL         0.1241
      2 O1          0.2069   -0.1192   -1.1209 O.3       1 MOL        -0.4288
      3 C2         -0.0262    0.0275    0.2914 C.3       1 MOL         0.5048
      4 C3          1.1977   -0.3900    1.1155 C.3       1 MOL         0.6156
      5 F1          2.2744    0.3659    0.7993 F         1 MOL        -0.2266
      6 F2          1.5386   -1.6786    0.8863 F         1 MOL        -0.2266
      7 F3          0.9809   -0.2606    2.4422 F         1 MOL        -0.2266
      8 O2         -0.2737    1.4049    0.6567 O.3       1 MOL        -0.4288
      9 C4         -1.4069    1.9746    0.0134 C.3       1 MOL         0.1241
     10 O3         -1.1603   -0.7686    0.6998 O.3       1 MOL        -0.4288
     11 C5         -1.2618   -2.0519    0.0999 C.3       1 MOL         0.1241
     12 H1          1.3628    0.4503   -2.7293 H         1 MOL         0.0526
     13 H2          2.2107    0.3625   -1.1540 H         1 MOL         0.0526
     14 H3          1.0824    1.7019   -1.4908 H         1 MOL         0.0526
     15 H4         -1.5234    3.0084    0.3410 H         1 MOL         0.0526
     16 H5         -2.2941    1.3932    0.2678 H         1 MOL         0.0526
     17 H6         -1.2467    1.9473   -1.0649 H         1 MOL         0.0526
     18 H7         -2.1499   -2.5589    0.4808 H         1 MOL         0.0526
     19 H8         -0.3663   -2.6309    0.3326 H         1 MOL         0.0526
     20 H9         -1.3468   -1.9283   -0.9809 H         1 MOL         0.0526
@<TRIPOS>BOND
     1    1    2 1
     2    2    3 1
     3    3    4 1
     4    4    5 1
     5    4    6 1
     6    4    7 1
     7    3    8 1
     8    8    9 1
     9    3   10 1
    10   10   11 1
    11    1   12 1
    12    1   13 1
    13    1   14 1
    14    9   15 1
    15    9   16 1
    16    9   17 1
    17   11   18 1
    18   11   19 1
    19   11   20 1
