@<TRIPOS>MOLECULE
pentanal
   16    15     0     0     0
SMALL
USER_CHARGES

@<TRIPOS>ATOM
      1 C1         -1.1145    1.9923   -0.6985 C.3       1 MOL        -0.0921
      2 C2         -1.0622    0.5172   -0.3337 C.3       1 MOL        -0.0788
      3 C3          0.3521    0.0848    0.0501 C.3       1 MOL        -0.0752
      4 C4          0.3998   -1.3953    0.4152 C.3       1 MOL        -0.1987
      5 C5          1.7858   -1.8542    0.7996 C.2       1 MOL         0.5631
      6 O1          2.7789   -1.1352    0.8233 O.2       1 MOL        -0.5239
      7 H1         -2.1352    2.2797   -0.9695 H         1 MOL         0.0351
      8 H2         -0.4629    2.2089   -1.5511 H         1 MOL         0.0351
      9 H3         -0.7982    2.6164    0.1436 H         1 MOL         0.0351
     10 H4         -1.4150   -0.0763   -1.1852 H         1 MOL         0.0364
     11 H5         -1.7485    0.3285    0.5001 H         1 MOL         0.0364
     12 H6          0.7060    0.6861    0.8970 H         1 MOL         0.0533
     13 H7          1.0381    0.2816   -0.7834 H         1 MOL         0.0533
     14 H8          0.0732   -2.0088   -0.4314 H         1 MOL         0.0654
     15 H9         -0.2623   -1.6023    1.2627 H         1 MOL         0.0654
     16 H10         1.8628   -2.9211    1.0716 H         1 MOL        -0.0098
@<TRIPOS>BOND
     1    1    2 1
     2    2    3 1
     3    3    4 1
     4    4    5 1
     5    5    6 2
     6    1    7 1
     7    1    8 1
     8    1    9 1
     9    2   10 1
    10    2   11 1
    11    3   12 1
    12    3   13 1
    13    4   14 1
    14    4   15 1
    15    5   16 1
