@<TRIPOS>MOLECULE
methyl acetate
   11    10     0     0     0
SMALL
USER_CHARGES

@<TRIPOS>ATOM
      1 C1         -0.9373   -0.5552    0.0879 C.3       1 MOL        -0.1502
      2 C2         -1.6376   -0.5840   -1.2367 C.2       1 MOL         0.6308
      3 O1         -1.9037   -1.6095   -1.8489 O.2       1 MOL        -0.5380
      4 O2         -1.9187    0.6904   -1.6316 O.3       1 MOL        -0.4460
      5 C3         -2.5912    0.8103   -2.8891 C.3       1 MOL         0.1256
      6 H1          0.1431   -0.4965   -0.0649 H         1 MOL         0.0761
      7 H2         -1.1972   -1.4466    0.6644 H         1 MOL         0.0761
      8 H3         -1.2585    0.3273    0.6488 H         1 MOL         0.0761
      9 H4         -2.7605    1.8646   -3.0962 H         1 MOL         0.0499
     10 H5         -3.5343    0.2706   -2.8345 H         1 MOL         0.0499
     11 H6         -1.9557    0.3759   -3.6575 H         1 MOL         0.0499
@<TRIPOS>BOND
     1    1    2 1
     2    2    3 2
     3    2    4 1
     4    4    5 1
     5    1    6 1
     6    1    7 1
     7    1    8 1
     8    5    9 1
     9    5   10 1
    10    5   11 1
