@<TRIPOS>MOLECULE
1-naphthyl N-methylcarbamate
   26    27     0     0     0
SMALL
USER_CHARGES

@<TRIPOS>ATOM
      1 C1         -3.4595   -6.6153   -0.2283 C.3       1 MOL         0.0938
      2 N1         -2.5248   -5.8298    0.5436 N.am      1 MOL        -0.5605
      3 C2         -1.6852   -4.8842   -0.0081 C.2       1 MOL         0.7422
      4 O1         -1.6239   -4.5903   -1.1983 O.2       1 MOL        -0.5594
      5 O2         -0.9141   -4.3076    0.9988 O.3       1 MOL        -0.3812
      6 C3         -0.0479   -3.3542    0.5448 C.ar      1 MOL         0.1279
      7 C4         -0.4966   -2.0341    0.4940 C.ar      1 MOL        -0.1211
      8 C5          0.3500   -1.0275    0.0392 C.ar      1 MOL        -0.1199
      9 C6          1.6484   -1.3369   -0.3665 C.ar      1 MOL        -0.1151
     10 C7          2.1168   -2.6602   -0.3222 C.ar      1 MOL        -0.0301
     11 C8          1.2560   -3.6839    0.1403 C.ar      1 MOL        -0.0326
     12 C9          1.7243   -5.0072    0.1848 C.ar      1 MOL        -0.1057
     13 C10         3.0228   -5.3167   -0.2210 C.ar      1 MOL        -0.1256
     14 C11         3.8693   -4.3100   -0.6758 C.ar      1 MOL        -0.1236
     15 C12         3.4207   -2.9899   -0.7267 C.ar      1 MOL        -0.1185
     16 H1         -2.9836   -7.5389   -0.5678 H         1 MOL         0.0470
     17 H2         -3.7961   -6.0510   -1.1023 H         1 MOL         0.0470
     18 H3         -4.3309   -6.8714    0.3803 H         1 MOL         0.0470
     19 H4         -2.4984   -5.9668    1.5493 H         1 MOL         0.3318
     20 H5         -1.5065   -1.7846    0.8084 H         1 MOL         0.1470
     21 H6          0.0002    0.0001    0.0002 H         1 MOL         0.1369
     22 H7          2.2926   -0.5342   -0.7189 H         1 MOL         0.1352
     23 H8          1.0887   -5.8176    0.5343 H         1 MOL         0.1384
     24 H9          3.3732   -6.3440   -0.1816 H         1 MOL         0.1339
     25 H10         4.8795   -4.5518   -0.9922 H         1 MOL         0.1327
     26 H11         4.0994   -2.2192   -1.0863 H         1 MOL         0.1328
@<TRIPOS>BOND
     1    1    2 1
     2    2    3 am
     3    3    4 2
     4    3    5 1
     5    5    6 1
     6    6   11 ar
     7    6    7 ar
     8    7    8 ar
     9    8    9 ar
    10    9   10 ar
    11   10   15 ar
    12   10   11 ar
    13   11   12 ar
    14   12   13 ar
    15   13   14 ar
    16   14   15 ar
    17    1   16 1
    18    1   17 1
    19    1   18 1
    20    2   19 1
    21    7   20 1
    22    8   21 1
    23    9   22 1
    24   12   23 1
    25   13   24 1
    26   14   25 1
    27   15   26 1
