@<TRIPOS>MOLECULE
butane-1-thiol
   15    14     0     0     0
SMALL
USER_CHARGES

@<TRIPOS>ATOM
      1 C1          0.9413   -0.0581   -0.7033 C.3       1 MOL        -0.0937
      2 C2          0.8885   -1.4198   -1.3796 C.3       1 MOL        -0.0796
      3 C3         -0.3384   -1.5430   -2.2871 C.3       1 MOL        -0.0840
      4 C4         -0.4452   -2.8933   -2.9954 C.3       1 MOL         0.0051
      5 S1         -1.9072   -3.0193   -4.0670 S.3       1 MOL        -0.3787
      6 H1          1.8238    0.0114   -0.0595 H         1 MOL         0.0350
      7 H2          0.0545    0.1071   -0.0829 H         1 MOL         0.0350
      8 H3          0.9973    0.7455   -1.4446 H         1 MOL         0.0350
      9 H4          0.8620   -2.2009   -0.6111 H         1 MOL         0.0412
     10 H5          1.8101   -1.5605   -1.9545 H         1 MOL         0.0412
     11 H6         -0.3459   -0.7281   -3.0219 H         1 MOL         0.0492
     12 H7         -1.2397   -1.4132   -1.6745 H         1 MOL         0.0492
     13 H8          0.4480   -3.0807   -3.5999 H         1 MOL         0.0728
     14 H9         -0.5123   -3.6910   -2.2485 H         1 MOL         0.0728
     15 H10        -1.5842   -1.9936   -4.8660 H         1 MOL         0.1995
@<TRIPOS>BOND
     1    1    2 1
     2    2    3 1
     3    3    4 1
     4    4    5 1
     5    1    6 1
     6    1    7 1
     7    1    8 1
     8    2    9 1
     9    2   10 1
    10    3   11 1
    11    3   12 1
    12    4   13 1
    13    4   14 1
    14    5   15 1
