@<TRIPOS>MOLECULE
ethyl benzoate
   21    21     0     0     0
SMALL
USER_CHARGES

@<TRIPOS>ATOM
      1 C1         -0.8756   -1.0406   -3.9097 C.3       1 MOL        -0.0995
      2 C2          0.5832   -1.0172   -3.5060 C.3       1 MOL         0.1333
      3 O1          0.6720   -1.0336   -2.0772 O.3       1 MOL        -0.4367
      4 C3          1.9292   -1.0155   -1.5659 C.2       1 MOL         0.6476
      5 O2          2.9699   -0.9869   -2.2041 O.2       1 MOL        -0.5361
      6 C4          1.8851   -1.0363   -0.1124 C.ar      1 MOL        -0.1339
      7 C5          2.9210   -1.6309    0.6081 C.ar      1 MOL        -0.0732
      8 C6          2.8783   -1.6520    2.0022 C.ar      1 MOL        -0.1449
      9 C7          1.7997   -1.0786    2.6757 C.ar      1 MOL        -0.0996
     10 C8          0.7638   -0.4841    1.9551 C.ar      1 MOL        -0.1449
     11 C9          0.8066   -0.4630    0.5610 C.ar      1 MOL        -0.0732
     12 H1         -0.9795   -1.0288   -4.9983 H         1 MOL         0.0474
     13 H2         -1.3705   -1.9350   -3.5170 H         1 MOL         0.0474
     14 H3         -1.4047   -0.1762   -3.4950 H         1 MOL         0.0474
     15 H4          1.0701   -0.1111   -3.8789 H         1 MOL         0.0494
     16 H5          1.1053   -1.8934   -3.9017 H         1 MOL         0.0494
     17 H6          3.7660   -2.0811    0.0935 H         1 MOL         0.1534
     18 H7          3.6850   -2.1145    2.5633 H         1 MOL         0.1391
     19 H8          1.7660   -1.0948    3.7610 H         1 MOL         0.1353
     20 H9         -0.0760   -0.0384    2.4800 H         1 MOL         0.1391
     21 H10        -0.0059    0.0036    0.0099 H         1 MOL         0.1534
@<TRIPOS>BOND
     1    1    2 1
     2    2    3 1
     3    3    4 1
     4    4    5 2
     5    4    6 1
     6    6   11 ar
     7    6    7 ar
     8    7    8 ar
     9    8    9 ar
    10    9   10 ar
    11   10   11 ar
    12    1   12 1
    13    1   13 1
    14    1   14 1
    15    2   15 1
    16    2   16 1
    17    7   17 1
    18    8   18 1
    19    9   19 1
    20   10   20 1
    21   11   21 1
