@<TRIPOS>MOLECULE
N-isopropylpropan-2-amine
   22    21     0     0     0
SMALL
USER_CHARGES

@<TRIPOS>ATOM
      1 C1          1.5588    0.7060    2.5693 C.3       1 MOL        -0.1017
      2 C2          0.9766   -0.5163    1.8745 C.3       1 MOL         0.1743
      3 C3          0.2651   -1.4365    2.8556 C.3       1 MOL        -0.1017
      4 N1          2.0725   -1.2697    1.2178 N.3       1 MOL        -0.8216
      5 C4          2.4184   -0.6430   -0.0401 C.3       1 MOL         0.1743
      6 C5          1.4175   -1.0455   -1.1306 C.3       1 MOL        -0.1017
      7 C6          3.8433   -1.0339   -0.4513 C.3       1 MOL        -0.1017
      8 H1          2.0670    1.3577    1.8511 H         1 MOL         0.0373
      9 H2          0.7789    1.2914    3.0691 H         1 MOL         0.0373
     10 H3          2.2870    0.4093    3.3322 H         1 MOL         0.0373
     11 H4          0.2730   -0.1969    1.0980 H         1 MOL         0.0375
     12 H5         -0.1474   -2.3101    2.3392 H         1 MOL         0.0373
     13 H6         -0.5601   -0.9147    3.3513 H         1 MOL         0.0373
     14 H7          0.9496   -1.8040    3.6283 H         1 MOL         0.0373
     15 H8          2.8670   -1.2675    1.8434 H         1 MOL         0.3570
     16 H9          2.3841    0.4582    0.0685 H         1 MOL         0.0375
     17 H10         1.6528   -0.5864   -2.0963 H         1 MOL         0.0373
     18 H11         1.4043   -2.1331   -1.2639 H         1 MOL         0.0373
     19 H12         0.4056   -0.7368   -0.8459 H         1 MOL         0.0373
     20 H13         4.1039   -0.5590   -1.4035 H         1 MOL         0.0373
     21 H14         3.9559   -2.1165   -0.5705 H         1 MOL         0.0373
     22 H15         4.5705   -0.6953    0.2951 H         1 MOL         0.0373
@<TRIPOS>BOND
     1    1    2 1
     2    2    3 1
     3    2    4 1
     4    4    5 1
     5    5    6 1
     6    5    7 1
     7    1    8 1
     8    1    9 1
     9    1   10 1
    10    2   11 1
    11    3   12 1
    12    3   13 1
    13    3   14 1
    14    4   15 1
    15    5   16 1
    16    6   17 1
    17    6   18 1
    18    6   19 1
    19    7   20 1
    20    7   21 1
    21    7   22 1
