@<TRIPOS>MOLECULE
cyclohexane
   18    18     0     0     0
SMALL
USER_CHARGES

@<TRIPOS>ATOM
      1 C1          0.3257    0.2271   -1.4209 C.3       1 MOL        -0.0756
      2 C2         -1.0123   -0.3779   -1.0045 C.3       1 MOL        -0.0755
      3 C3         -1.4192    0.0673    0.3976 C.3       1 MOL        -0.0755
      4 C4         -0.3257   -0.2271    1.4209 C.3       1 MOL        -0.0755
      5 C5          1.0123    0.3778    1.0046 C.3       1 MOL        -0.0755
      6 C6          1.4192   -0.0672   -0.3976 C.3       1 MOL        -0.0755
      7 H1          0.2153    1.3127   -1.5339 H         1 MOL         0.0378
      8 H2          0.6202   -0.1679   -2.3997 H         1 MOL         0.0378
      9 H3         -1.7873   -0.0886   -1.7230 H         1 MOL         0.0378
     10 H4         -0.9422   -1.4724   -1.0332 H         1 MOL         0.0378
     11 H5         -1.6319    1.1436    0.3908 H         1 MOL         0.0378
     12 H6         -2.3453   -0.4392    0.6917 H         1 MOL         0.0378
     13 H7         -0.6205    0.1679    2.3997 H         1 MOL         0.0378
     14 H8         -0.2152   -1.3126    1.5339 H         1 MOL         0.0378
     15 H9          0.9419    1.4721    1.0331 H         1 MOL         0.0378
     16 H10         1.7876    0.0884    1.7231 H         1 MOL         0.0378
     17 H11         2.3456    0.4395   -0.6909 H         1 MOL         0.0378
     18 H12         1.6316   -1.1434   -0.3907 H         1 MOL         0.0378
@<TRIPOS>BOND
     1    1    6 1
     2    1    2 1
     3    2    3 1
     4    3    4 1
     5    4    5 1
     6    5    6 1
     7    1    7 1
     8    1    8 1
     9    2    9 1
    10    2   10 1
    11    3   11 1
    12    3   12 1
    13    4   13 1
    14    4   14 1
    15    5   15 1
    16    5   16 1
    17    6   17 1
    18    6   18 1
