@<TRIPOS>MOLECULE
2,3-dimethylpyridine
   17    17     0     0     0
SMALL
USER_CHARGES

@<TRIPOS>ATOM
      1 C1          2.8944   -0.2501    3.6321 C.3       1 MOL        -0.0501
      2 C2          1.6520   -0.6227    2.8997 C.ar      1 MOL        -0.1915
      3 C3          1.3879   -0.0684    1.6522 C.ar      1 MOL        -0.0941
      4 C4          0.2265   -0.4197    0.9733 C.ar      1 MOL        -0.2493
      5 C5         -0.6317   -1.3224    1.5803 C.ar      1 MOL         0.3957
      6 N1         -0.4092   -1.8816    2.7908 N.ar      1 MOL        -0.6697
      7 C6          0.7299   -1.5161    3.4206 C.ar      1 MOL         0.4140
      8 C7          0.9623   -2.1430    4.7564 C.3       1 MOL        -0.1496
      9 H1          3.7057   -0.9343    3.3654 H         1 MOL         0.0460
     10 H2          3.1997    0.7730    3.3888 H         1 MOL         0.0460
     11 H3          2.7373   -0.2922    4.7151 H         1 MOL         0.0460
     12 H4          2.0800    0.6378    1.2016 H         1 MOL         0.1356
     13 H5         -0.0016   -0.0005    0.0001 H         1 MOL         0.1423
     14 H6         -1.5508   -1.6293    1.0922 H         1 MOL         0.0201
     15 H7          1.5205   -3.0796    4.6442 H         1 MOL         0.0529
     16 H8          1.5301   -1.4740    5.4146 H         1 MOL         0.0529
     17 H9          0.0135   -2.3596    5.2627 H         1 MOL         0.0529
@<TRIPOS>BOND
     1    1    2 1
     2    2    7 ar
     3    2    3 ar
     4    3    4 ar
     5    4    5 ar
     6    5    6 ar
     7    6    7 ar
     8    7    8 1
     9    1    9 1
    10    1   10 1
    11    1   11 1
    12    3   12 1
    13    4   13 1
    14    5   14 1
    15    8   15 1
    16    8   16 1
    17    8   17 1
