@<TRIPOS>MOLECULE
1,2,3,4,7,8-hexachlorodibenzo-p-dioxin
   22    24     0     0     0
SMALL
USER_CHARGES

@<TRIPOS>ATOM
      1 C1         -1.4367   -1.5819    0.2693 C.ar      1 MOL        -0.1032
      2 C2         -2.7266   -1.9051    0.6889 C.ar      1 MOL         0.0682
      3 C3         -3.5799   -0.9097    1.1626 C.ar      1 MOL         0.0682
      4 C4         -3.1487    0.4152    1.2196 C.ar      1 MOL        -0.1031
      5 C5         -1.8584    0.7400    0.8000 C.ar      1 MOL         0.0210
      6 C6         -1.0039   -0.2568    0.3257 C.ar      1 MOL         0.0210
      7 Cl1         0.6055    0.0871   -0.2048 Cl        1 MOL        -0.0501
      8 Cl2        -1.3753    2.3976    0.8910 Cl        1 MOL        -0.0501
      9 O1         -4.8561   -1.1828    1.5855 O.3       1 MOL        -0.1994
     10 C7         -5.2389   -2.4982    1.5123 C.ar      1 MOL         0.0818
     11 C8         -4.3856   -3.4936    1.0385 C.ar      1 MOL         0.0818
     12 C9         -4.8168   -4.8184    0.9815 C.ar      1 MOL         0.0293
     13 C10        -6.1071   -5.1433    1.4010 C.ar      1 MOL         0.0216
     14 C11        -6.9616   -4.1465    1.8755 C.ar      1 MOL         0.0216
     15 C12        -6.5287   -2.8214    1.9320 C.ar      1 MOL         0.0293
     16 Cl3        -7.5649   -1.5539    2.5153 Cl        1 MOL        -0.0184
     17 Cl4        -8.5737   -4.5509    2.3987 Cl        1 MOL        -0.0275
     18 Cl5        -6.6458   -6.7987    1.3310 Cl        1 MOL        -0.0275
     19 Cl6        -3.7248   -6.0327    0.3864 Cl        1 MOL        -0.0184
     20 O2         -3.1093   -3.2205    0.6157 O.3       1 MOL        -0.1994
     21 H1         -0.7790   -2.3656   -0.0995 H         1 MOL         0.1769
     22 H2         -3.8229    1.1835    1.5908 H         1 MOL         0.1769
@<TRIPOS>BOND
     1    1    6 ar
     2    1    2 ar
     3    2   20 1
     4    2    3 ar
     5    3    4 ar
     6    4    5 ar
     7    5    6 ar
     8    6    7 1
     9    5    8 1
    10    3    9 1
    11    9   10 1
    12   10   15 ar
    13   10   11 ar
    14   11   12 ar
    15   12   13 ar
    16   13   14 ar
    17   14   15 ar
    18   15   16 1
    19   14   17 1
    20   13   18 1
    21   12   19 1
    22   11   20 1
    23    1   21 1
    24    4   22 1
