@<TRIPOS>MOLECULE
pentylbenzene
   27    27     0     0     0
SMALL
USER_CHARGES

@<TRIPOS>ATOM
      1 C1         -0.8982    3.6493   -2.4911 C.3       1 MOL        -0.0920
      2 C2         -0.8407    2.1942   -2.9280 C.3       1 MOL        -0.0798
      3 C3         -0.0263    2.0265   -4.2114 C.3       1 MOL        -0.0783
      4 C4          0.0276    0.5585   -4.6460 C.3       1 MOL        -0.0750
      5 C5          0.8337    0.3368   -5.9296 C.3       1 MOL        -0.0358
      6 C6          0.8893   -1.0976   -6.3586 C.ar      1 MOL        -0.0763
      7 C7          1.9173   -1.9225   -5.9021 C.ar      1 MOL        -0.1276
      8 C8          1.9694   -3.2579   -6.3016 C.ar      1 MOL        -0.1288
      9 C9          0.9935   -3.7684   -7.1576 C.ar      1 MOL        -0.1323
     10 C10        -0.0345   -2.9434   -7.6141 C.ar      1 MOL        -0.1288
     11 C11        -0.0866   -1.6080   -7.2146 C.ar      1 MOL        -0.1276
     12 H1         -1.4828    3.7600   -1.5722 H         1 MOL         0.0331
     13 H2          0.1106    4.0278   -2.2995 H         1 MOL         0.0331
     14 H3         -1.3541    4.2742   -3.2657 H         1 MOL         0.0331
     15 H4         -0.3972    1.5944   -2.1247 H         1 MOL         0.0389
     16 H5         -1.8613    1.8253   -3.0832 H         1 MOL         0.0389
     17 H6          0.9880    2.4067   -4.0444 H         1 MOL         0.0384
     18 H7         -0.4729    2.6305   -5.0105 H         1 MOL         0.0384
     19 H8          0.4343   -0.0515   -3.8299 H         1 MOL         0.0429
     20 H9         -0.9960    0.2052   -4.8231 H         1 MOL         0.0429
     21 H10         1.8502    0.7308   -5.8080 H         1 MOL         0.0463
     22 H11         0.3778    0.9169   -6.7423 H         1 MOL         0.0463
     23 H12         2.6820   -1.5329   -5.2354 H         1 MOL         0.1301
     24 H13         2.7697   -3.9003   -5.9460 H         1 MOL         0.1298
     25 H14         1.0337   -4.8082   -7.4687 H         1 MOL         0.1302
     26 H15        -0.7940   -3.3407   -8.2810 H         1 MOL         0.1298
     27 H16        -0.8916   -0.9731   -7.5752 H         1 MOL         0.1301
@<TRIPOS>BOND
     1    1    2 1
     2    2    3 1
     3    3    4 1
     4    4    5 1
     5    5    6 1
     6    6   11 ar
     7    6    7 ar
     8    7    8 ar
     9    8    9 ar
    10    9   10 ar
    11   10   11 ar
    12    1   12 1
    13    1   13 1
    14    1   14 1
    15    2   15 1
    16    2   16 1
    17    3   17 1
    18    3   18 1
    19    4   19 1
    20    4   20 1
    21    5   21 1
    22    5   22 1
    23    7   23 1
    24    8   24 1
    25    9   25 1
    26   10   26 1
    27   11   27 1
