@<TRIPOS>MOLECULE
1,2,3,4-tetrachlorobenzene
   12    12     0     0     0
SMALL
USER_CHARGES

@<TRIPOS>ATOM
      1 C1          1.8851   -1.0363   -0.1124 C.ar      1 MOL        -0.1111
      2 C2          2.9210   -1.6309    0.6081 C.ar      1 MOL        -0.1110
      3 C3          2.8783   -1.6520    2.0022 C.ar      1 MOL         0.0221
      4 C4          1.7997   -1.0786    2.6757 C.ar      1 MOL         0.0226
      5 C5          0.7638   -0.4841    1.9551 C.ar      1 MOL         0.0226
      6 C6          0.8066   -0.4630    0.5610 C.ar      1 MOL         0.0221
      7 Cl1        -0.4385    0.2554   -0.4029 Cl        1 MOL        -0.0546
      8 Cl2        -0.5863    0.2364    2.7836 Cl        1 MOL        -0.0384
      9 Cl3         1.7591   -1.1115    4.4155 Cl        1 MOL        -0.0384
     10 Cl4         4.2004   -2.4091    2.8236 Cl        1 MOL        -0.0546
     11 H1          1.9348   -1.0287   -1.1984 H         1 MOL         0.1593
     12 H2          3.7536   -2.0728    0.0661 H         1 MOL         0.1593
@<TRIPOS>BOND
     1    1    6 ar
     2    1    2 ar
     3    2    3 ar
     4    3    4 ar
     5    4    5 ar
     6    5    6 ar
     7    6    7 1
     8    5    8 1
     9    4    9 1
    10    3   10 1
    11    1   11 1
    12    2   12 1
