@<TRIPOS>MOLECULE
methyl butanoate
   17    16     0     0     0
SMALL
USER_CHARGES

@<TRIPOS>ATOM
      1 C1         -0.3785   -0.6982    0.7531 C.3       1 MOL        -0.0939
      2 C2          0.4050   -0.5787    2.0501 C.3       1 MOL        -0.0795
      3 C3          1.8852   -0.8881    1.8405 C.3       1 MOL        -0.1282
      4 C4          2.6749   -0.7723    3.1243 C.2       1 MOL         0.6295
      5 O1          2.2096   -0.4689    4.2142 O.2       1 MOL        -0.5374
      6 O2          3.9847   -1.0619    2.8650 O.3       1 MOL        -0.4482
      7 C5          4.8650   -0.9953    3.9916 C.3       1 MOL         0.1269
      8 H1         -1.4355   -0.4725    0.9264 H         1 MOL         0.0368
      9 H2         -0.0006    0.0012    0.0005 H         1 MOL         0.0368
     10 H3         -0.3102   -1.7121    0.3458 H         1 MOL         0.0368
     11 H4         -0.0189   -1.2648    2.7932 H         1 MOL         0.0564
     12 H5          0.2875    0.4347    2.4522 H         1 MOL         0.0564
     13 H6          2.3099   -0.1867    1.1135 H         1 MOL         0.0789
     14 H7          1.9989   -1.9095    1.4604 H         1 MOL         0.0789
     15 H8          5.8719   -1.2438    3.6636 H         1 MOL         0.0499
     16 H9          4.5199   -1.6975    4.7473 H         1 MOL         0.0499
     17 H10         4.8392    0.0189    4.3837 H         1 MOL         0.0499
@<TRIPOS>BOND
     1    1    2 1
     2    2    3 1
     3    3    4 1
     4    4    5 2
     5    4    6 1
     6    6    7 1
     7    1    8 1
     8    1    9 1
     9    1   10 1
    10    2   11 1
    11    2   12 1
    12    3   13 1
    13    3   14 1
    14    7   15 1
    15    7   16 1
    16    7   17 1
