@<TRIPOS>MOLECULE
cyclopentanol
   16    16     0     0     0
SMALL
USER_CHARGES

@<TRIPOS>ATOM
      1 C1         -0.5073   -1.0667    1.8391 C.3       1 MOL        -0.0782
      2 C2          0.3046   -0.0385    1.0510 C.3       1 MOL        -0.0782
      3 C3          1.7686   -0.4549    1.1854 C.3       1 MOL        -0.0975
      4 C4          1.8081   -1.3103    2.4423 C.3       1 MOL         0.1382
      5 C5          0.4994   -2.0828    2.3727 C.3       1 MOL        -0.0975
      6 O1          1.8253   -0.4673    3.5876 O.3       1 MOL        -0.6026
      7 H1         -1.2699   -1.5476    1.2182 H         1 MOL         0.0430
      8 H2         -1.0253   -0.5720    2.6691 H         1 MOL         0.0430
      9 H3          0.0008    0.0002   -0.0001 H         1 MOL         0.0430
     10 H4          0.1486    0.9609    1.4731 H         1 MOL         0.0430
     11 H5          2.0582   -1.0539    0.3140 H         1 MOL         0.0512
     12 H6          2.4240    0.4196    1.2421 H         1 MOL         0.0512
     13 H7          2.6859   -1.9620    2.4746 H         1 MOL         0.0406
     14 H8          0.5906   -2.9149    1.6647 H         1 MOL         0.0512
     15 H9          0.1834   -2.4804    3.3419 H         1 MOL         0.0512
     16 H10         1.8503   -1.0504    4.3632 H         1 MOL         0.3986
@<TRIPOS>BOND
     1    1    5 1
     2    1    2 1
     3    2    3 1
     4    3    4 1
     5    4    5 1
     6    4    6 1
     7    1    7 1
     8    1    8 1
     9    2    9 1
    10    2   10 1
    11    3   11 1
    12    3   12 1
    13    4   13 1
    14    5   14 1
    15    5   15 1
    16    6   16 1
