@<TRIPOS>MOLECULE
4-methoxy-N,N-dimethyl-benzamide
   26    26     0     0     0
SMALL
USER_CHARGES

@<TRIPOS>ATOM
      1 C1          1.0794   -0.1520   -0.2186 C.3       1 MOL         0.0828
      2 N1          1.5174    0.5281   -1.4294 N.am      1 MOL        -0.4818
      3 C2          1.0586   -0.0591   -2.6863 C.3       1 MOL         0.0828
      4 C3          2.3234    1.6663   -1.3232 C.2       1 MOL         0.6753
      5 O1          2.7133    2.1680   -0.2695 O.2       1 MOL        -0.5941
      6 C4          2.7669    2.3258   -2.5617 C.ar      1 MOL        -0.1645
      7 C5          3.9635    1.9416   -3.1668 C.ar      1 MOL        -0.0666
      8 C6          4.3835    2.5669   -4.3408 C.ar      1 MOL        -0.1842
      9 C7          3.6070    3.5764   -4.9096 C.ar      1 MOL         0.1364
     10 C8          2.4104    3.9606   -4.3044 C.ar      1 MOL        -0.1842
     11 C9          1.9904    3.3353   -3.1304 C.ar      1 MOL        -0.0666
     12 O2          4.0161    4.1870   -6.0552 O.3       1 MOL        -0.3245
     13 C10         5.2490    3.7458   -6.6216 C.3       1 MOL         0.1115
     14 H1          1.8046   -0.9195    0.0644 H         1 MOL         0.0423
     15 H2          0.1090   -0.6283   -0.3826 H         1 MOL         0.0423
     16 H3          0.9846    0.5627    0.6032 H         1 MOL         0.0423
     17 H4          0.1100    0.3915   -2.9594 H         1 MOL         0.0423
     18 H5          0.9359   -1.1292   -2.5531 H         1 MOL         0.0423
     19 H6          1.7968    0.1347   -3.4578 H         1 MOL         0.0423
     20 H7          4.5770    1.1567   -2.7322 H         1 MOL         0.1441
     21 H8          5.3160    2.2625   -4.8080 H         1 MOL         0.1475
     22 H9          1.8015    4.7468   -4.7427 H         1 MOL         0.1475
     23 H10         1.0558    3.6418   -2.6674 H         1 MOL         0.1441
     24 H11         5.4478    4.3180   -7.5267 H         1 MOL         0.0468
     25 H12         5.1745    2.6830   -6.8484 H         1 MOL         0.0468
     26 H13         6.0421    3.9150   -5.8947 H         1 MOL         0.0468
@<TRIPOS>BOND
     1    1    2 1
     2    2    3 1
     3    2    4 am
     4    4    5 2
     5    4    6 1
     6    6   11 ar
     7    6    7 ar
     8    7    8 ar
     9    8    9 ar
    10    9   10 ar
    11   10   11 ar
    12    9   12 1
    13   12   13 1
    14    1   14 1
    15    1   15 1
    16    1   16 1
    17    3   17 1
    18    3   18 1
    19    3   19 1
    20    7   20 1
    21    8   21 1
    22   10   22 1
    23   11   23 1
    24   13   24 1
    25   13   25 1
    26   13   26 1
