@<TRIPOS>MOLECULE
chloroethane
    8     7     0     0     0
SMALL
USER_CHARGES

@<TRIPOS>ATOM
      1 C1          0.1543   -0.7247    0.8062 C.3       1 MOL        -0.1067
      2 C2          1.3672   -0.3680    1.6395 C.3       1 MOL         0.0385
      3 Cl1         2.8321   -0.3570    0.6342 Cl        1 MOL        -0.2024
      4 H1         -0.7442   -0.7297    1.4311 H         1 MOL         0.0486
      5 H2         -0.0001    0.0001    0.0001 H         1 MOL         0.0486
      6 H3          0.2589   -1.7187    0.3589 H         1 MOL         0.0486
      7 H4          1.5144   -1.0958    2.4424 H         1 MOL         0.0624
      8 H5          1.2550    0.6252    2.0832 H         1 MOL         0.0624
@<TRIPOS>BOND
     1    1    2 1
     2    2    3 1
     3    1    4 1
     4    1    5 1
     5    1    6 1
     6    2    7 1
     7    2    8 1
