@<TRIPOS>MOLECULE
naphthalen-2-amine
   20    21     0     0     0
SMALL
USER_CHARGES

@<TRIPOS>ATOM
      1 C1         -0.4966   -2.0341    0.4940 C.ar      1 MOL        -0.1431
      2 C2          0.3500   -1.0275    0.0392 C.ar      1 MOL        -0.1177
      3 C3          1.6484   -1.3369   -0.3665 C.ar      1 MOL        -0.1306
      4 C4          2.1168   -2.6602   -0.3222 C.ar      1 MOL         0.0034
      5 C5          3.4207   -2.9899   -0.7267 C.ar      1 MOL        -0.1999
      6 C6          3.8693   -4.3100   -0.6758 C.ar      1 MOL         0.1392
      7 C7          3.0228   -5.3167   -0.2210 C.ar      1 MOL        -0.1667
      8 C8          1.7243   -5.0072    0.1848 C.ar      1 MOL        -0.0857
      9 C9          1.2560   -3.6839    0.1403 C.ar      1 MOL        -0.0704
     10 C10        -0.0479   -3.3542    0.5448 C.ar      1 MOL        -0.1046
     11 N1          5.1821   -4.6242   -1.0852 N.pl3     1 MOL        -0.8170
     12 H1         -1.5075   -1.7926    0.8094 H         1 MOL         0.1298
     13 H2         -0.0001    0.0000    0.0003 H         1 MOL         0.1307
     14 H3          2.2920   -0.5337   -0.7194 H         1 MOL         0.1306
     15 H4          4.0918   -2.2104   -1.0841 H         1 MOL         0.1323
     16 H5          3.3630   -6.3482   -0.1773 H         1 MOL         0.1323
     17 H6          1.0795   -5.8097    0.5368 H         1 MOL         0.1318
     18 H7         -0.7268   -4.1255    0.9023 H         1 MOL         0.1295
     19 H8          5.7646   -3.8999   -1.4537 H         1 MOL         0.3881
     20 H9          5.4760   -5.5799   -1.0886 H         1 MOL         0.3881
@<TRIPOS>BOND
     1    1   10 ar
     2    1    2 ar
     3    2    3 ar
     4    3    4 ar
     5    4    9 ar
     6    4    5 ar
     7    5    6 ar
     8    6    7 ar
     9    7    8 ar
    10    8    9 ar
    11    9   10 ar
    12    6   11 1
    13    1   12 1
    14    2   13 1
    15    3   14 1
    16    5   15 1
    17    7   16 1
    18    8   17 1
    19   10   18 1
    20   11   19 1
    21   11   20 1
