@<TRIPOS>MOLECULE
1,1-diethoxyethane
   22    21     0     0     0
SMALL
USER_CHARGES

@<TRIPOS>ATOM
      1 C1         -2.1997    1.7783   -2.9577 C.3       1 MOL        -0.0966
      2 C2         -0.9532    1.1285   -2.3958 C.3       1 MOL         0.1330
      3 O1         -1.1004   -0.2838   -2.4553 O.3       1 MOL        -0.4239
      4 C3          0.0350   -0.9855   -1.9430 C.3       1 MOL         0.3327
      5 C4         -0.0326   -1.0089   -0.4213 C.3       1 MOL        -0.1150
      6 O2          0.0393   -2.3517   -2.3774 O.3       1 MOL        -0.4239
      7 C5          0.5277   -2.4934   -3.7049 C.3       1 MOL         0.1330
      8 C6          0.4996   -3.9579   -4.0848 C.3       1 MOL        -0.0966
      9 H1         -2.1193    2.8684   -2.9267 H         1 MOL         0.0455
     10 H2         -2.3646    1.4653   -3.9939 H         1 MOL         0.0455
     11 H3         -3.0840    1.4730   -2.3885 H         1 MOL         0.0455
     12 H4         -0.8033    1.4236   -1.3530 H         1 MOL         0.0245
     13 H5         -0.0737    1.4162   -2.9796 H         1 MOL         0.0245
     14 H6          0.9718   -0.5106   -2.2632 H         1 MOL         0.0297
     15 H7          0.8301   -1.5431   -0.0073 H         1 MOL         0.0522
     16 H8         -0.9329   -1.5175   -0.0648 H         1 MOL         0.0522
     17 H9         -0.0141    0.0074   -0.0145 H         1 MOL         0.0522
     18 H10        -0.1076   -1.9092   -4.3764 H         1 MOL         0.0245
     19 H11         1.5487   -2.1042   -3.7463 H         1 MOL         0.0245
     20 H12         0.8701   -4.1026   -5.1035 H         1 MOL         0.0455
     21 H13         1.1152   -4.5475   -3.3976 H         1 MOL         0.0455
     22 H14        -0.5190   -4.3545   -4.0198 H         1 MOL         0.0455
@<TRIPOS>BOND
     1    1    2 1
     2    2    3 1
     3    3    4 1
     4    4    5 1
     5    4    6 1
     6    6    7 1
     7    7    8 1
     8    1    9 1
     9    1   10 1
    10    1   11 1
    11    2   12 1
    12    2   13 1
    13    4   14 1
    14    5   15 1
    15    5   16 1
    16    5   17 1
    17    7   18 1
    18    7   19 1
    19    8   20 1
    20    8   21 1
    21    8   22 1
