@<TRIPOS>MOLECULE
4-methylpentan-2-one
   19    18     0     0     0
SMALL
USER_CHARGES

@<TRIPOS>ATOM
      1 C1          4.7488   -1.8026    0.2531 C.3       1 MOL        -0.0932
      2 C2          4.3444   -0.9798    1.4791 C.3       1 MOL        -0.0582
      3 C3          5.1204   -1.4658    2.7050 C.3       1 MOL        -0.0932
      4 C4          2.8340   -1.0707    1.7426 C.3       1 MOL        -0.1833
      5 C5          1.9779   -0.5642    0.5921 C.2       1 MOL         0.5673
      6 O1          1.1628   -1.2720    0.0028 O.2       1 MOL        -0.5343
      7 C6          2.2108    0.8638    0.1711 C.3       1 MOL        -0.2020
      8 H1          4.2018   -1.4672   -0.6347 H         1 MOL         0.0379
      9 H2          5.8199   -1.7056    0.0448 H         1 MOL         0.0379
     10 H3          4.5275   -2.8650    0.3942 H         1 MOL         0.0379
     11 H4          4.6222    0.0661    1.2978 H         1 MOL         0.0458
     12 H5          4.8448   -0.8887    3.5940 H         1 MOL         0.0379
     13 H6          6.2012   -1.3659    2.5572 H         1 MOL         0.0379
     14 H7          4.9021   -2.5191    2.9111 H         1 MOL         0.0379
     15 H8          2.5691   -0.4639    2.6167 H         1 MOL         0.0672
     16 H9          2.5519   -2.1087    1.9534 H         1 MOL         0.0672
     17 H10         2.9826    0.8960   -0.6017 H         1 MOL         0.0631
     18 H11         1.2860    1.2852   -0.2328 H         1 MOL         0.0631
     19 H12         2.5177    1.4558    1.0367 H         1 MOL         0.0631
@<TRIPOS>BOND
     1    1    2 1
     2    2    3 1
     3    2    4 1
     4    4    5 1
     5    5    6 2
     6    5    7 1
     7    1    8 1
     8    1    9 1
     9    1   10 1
    10    2   11 1
    11    3   12 1
    12    3   13 1
    13    3   14 1
    14    4   15 1
    15    4   16 1
    16    7   17 1
    17    7   18 1
    18    7   19 1
