@<TRIPOS>MOLECULE
1,4-dichlorobenzene
   12    12     0     0     0
SMALL
USER_CHARGES

@<TRIPOS>ATOM
      1 C1          1.8851   -1.0363   -0.1124 C.ar      1 MOL        -0.1165
      2 C2          2.9210   -1.6309    0.6081 C.ar      1 MOL        -0.1164
      3 C3          2.8783   -1.6520    2.0022 C.ar      1 MOL         0.0157
      4 C4          1.7997   -1.0786    2.6757 C.ar      1 MOL        -0.1164
      5 C5          0.7638   -0.4841    1.9551 C.ar      1 MOL        -0.1164
      6 C6          0.8066   -0.4630    0.5610 C.ar      1 MOL         0.0157
      7 Cl1        -0.4710    0.2709   -0.3280 Cl        1 MOL        -0.0873
      8 Cl2         4.1562   -2.3855    2.8911 Cl        1 MOL        -0.0873
      9 H1          1.9312   -1.0272   -1.1983 H         1 MOL         0.1523
     10 H2          3.7554   -2.0737    0.0706 H         1 MOL         0.1523
     11 H3          1.7535   -1.0881    3.7615 H         1 MOL         0.1523
     12 H4         -0.0705   -0.0411    2.4926 H         1 MOL         0.1523
@<TRIPOS>BOND
     1    1    6 ar
     2    1    2 ar
     3    2    3 ar
     4    3    4 ar
     5    4    5 ar
     6    5    6 ar
     7    6    7 1
     8    3    8 1
     9    1    9 1
    10    2   10 1
    11    4   11 1
    12    5   12 1
