@<TRIPOS>MOLECULE
ammonia
    4     3     0     0     0
SMALL
USER_CHARGES

@<TRIPOS>ATOM
      1 N1         -0.1928   -0.0275   -0.2222 N.3       1 MOL        -1.0100
      2 H1         -0.6347    0.2631    0.6488 H         1 MOL         0.3367
      3 H2          0.5328    0.6620   -0.4131 H         1 MOL         0.3367
      4 H3          0.2947   -0.8976   -0.0135 H         1 MOL         0.3367
@<TRIPOS>BOND
     1    1    2 1
     2    1    3 1
     3    1    4 1
