@<TRIPOS>MOLECULE
1-aminoanthracene-9,10-dione
   26    28     0     0     0
SMALL
USER_CHARGES

@<TRIPOS>ATOM
      1 C1          1.2904   -1.6865   -0.3516 C.ar      1 MOL        -0.1202
      2 C2          0.9563   -0.4630    0.2256 C.ar      1 MOL        -0.1180
      3 C3          1.8484    0.1684    1.0928 C.ar      1 MOL        -0.0883
      4 C4          3.0812   -0.4277    1.3842 C.ar      1 MOL        -0.1267
      5 C5          3.4160   -1.6538    0.8057 C.ar      1 MOL        -0.1272
      6 C6          2.5179   -2.2839   -0.0640 C.ar      1 MOL        -0.0861
      7 C7          4.7134   -2.2938    1.1043 C.2       1 MOL         0.5823
      8 O1          5.0075   -3.3691    0.5970 O.2       1 MOL        -0.5256
      9 C8          5.6516   -1.6180    2.0237 C.ar      1 MOL        -0.0736
     10 C9          6.8845   -2.2140    2.3149 C.ar      1 MOL        -0.1507
     11 C10         7.7766   -1.5826    3.1822 C.ar      1 MOL        -0.0624
     12 C11         7.4425   -0.3591    3.7594 C.ar      1 MOL        -0.2118
     13 C12         6.2150    0.2382    3.4720 C.ar      1 MOL         0.2606
     14 C13         5.3168   -0.3919    2.6022 C.ar      1 MOL        -0.2336
     15 C14         4.0194    0.2481    2.3036 C.2       1 MOL         0.6033
     16 O2          3.6911    1.3222    2.7914 O.2       1 MOL        -0.5786
     17 N1          5.9467    1.4787    4.0953 N.pl3     1 MOL        -0.8681
     18 H1          0.5941   -2.1759   -1.0263 H         1 MOL         0.1391
     19 H2          0.0002    0.0001   -0.0002 H         1 MOL         0.1405
     20 H3          1.5620    1.1218    1.5285 H         1 MOL         0.1617
     21 H4          2.7545   -3.2381   -0.5267 H         1 MOL         0.1584
     22 H5          7.1685   -3.1675    1.8781 H         1 MOL         0.1601
     23 H6          8.7334   -2.0451    3.4074 H         1 MOL         0.1393
     24 H7          8.1494    0.1194    4.4330 H         1 MOL         0.1360
     25 H8          5.0987    1.9575    3.8761 H         1 MOL         0.4448
     26 H9          6.6506    1.8950    4.6678 H         1 MOL         0.4448
@<TRIPOS>BOND
     1    1    6 ar
     2    1    2 ar
     3    2    3 ar
     4    3    4 ar
     5    4   15 1
     6    4    5 ar
     7    5    6 ar
     8    5    7 1
     9    7    8 2
    10    7    9 1
    11    9   14 ar
    12    9   10 ar
    13   10   11 ar
    14   11   12 ar
    15   12   13 ar
    16   13   14 ar
    17   14   15 1
    18   15   16 2
    19   13   17 1
    20    1   18 1
    21    2   19 1
    22    3   20 1
    23    6   21 1
    24   10   22 1
    25   11   23 1
    26   12   24 1
    27   17   25 1
    28   17   26 1
