@<TRIPOS>MOLECULE
non-1-ene
   27    26     0     0     0
SMALL
USER_CHARGES

@<TRIPOS>ATOM
      1 C1         -2.7076    2.7614   -1.3156 C.3       1 MOL        -0.0924
      2 C2         -2.0243    1.4035   -1.3410 C.3       1 MOL        -0.0799
      3 C3         -1.3392    1.0964   -0.0096 C.3       1 MOL        -0.0811
      4 C4         -0.6527   -0.2710   -0.0390 C.3       1 MOL        -0.0765
      5 C5          0.0320   -0.5752    1.2952 C.3       1 MOL        -0.0759
      6 C6          0.7375   -1.9363    1.3216 C.3       1 MOL        -0.0745
      7 C7          1.4394   -2.2884    2.6375 C.3       1 MOL        -0.0539
      8 C8          0.5042   -2.3332    3.8098 C.2       1 MOL        -0.1617
      9 C9          0.6221   -1.5545    4.8910 C.2       1 MOL        -0.2242
     10 H1         -3.1953    2.9728   -2.2726 H         1 MOL         0.0326
     11 H2         -1.9742    3.5514   -1.1261 H         1 MOL         0.0326
     12 H3         -3.4653    2.8047   -0.5266 H         1 MOL         0.0326
     13 H4         -2.7688    0.6304   -1.5639 H         1 MOL         0.0376
     14 H5         -1.2868    1.3872   -2.1519 H         1 MOL         0.0376
     15 H6         -0.5982    1.8745    0.2105 H         1 MOL         0.0408
     16 H7         -2.0808    1.1183    0.7983 H         1 MOL         0.0408
     17 H8          0.0823   -0.2839   -0.8512 H         1 MOL         0.0386
     18 H9         -1.3938   -1.0492   -0.2578 H         1 MOL         0.0386
     19 H10         0.7430    0.2231    1.5383 H         1 MOL         0.0377
     20 H11        -0.7220   -0.5701    2.0924 H         1 MOL         0.0377
     21 H12         1.4779   -1.9689    0.5126 H         1 MOL         0.0410
     22 H13        -0.0030   -2.7130    1.0912 H         1 MOL         0.0410
     23 H14         2.2686   -1.5955    2.8197 H         1 MOL         0.0467
     24 H15         1.8934   -3.2816    2.5325 H         1 MOL         0.0467
     25 H16        -0.3087   -3.0535    3.7724 H         1 MOL         0.1168
     26 H17        -0.0852   -1.6395    5.7086 H         1 MOL         0.1103
     27 H18         1.4175   -0.8230    4.9792 H         1 MOL         0.1103
@<TRIPOS>BOND
     1    1    2 1
     2    2    3 1
     3    3    4 1
     4    4    5 1
     5    5    6 1
     6    6    7 1
     7    7    8 1
     8    8    9 2
     9    1   10 1
    10    1   11 1
    11    1   12 1
    12    2   13 1
    13    2   14 1
    14    3   15 1
    15    3   16 1
    16    4   17 1
    17    4   18 1
    18    5   19 1
    19    5   20 1
    20    6   21 1
    21    6   22 1
    22    7   23 1
    23    7   24 1
    24    8   25 1
    25    9   26 1
    26    9   27 1
