@<TRIPOS>MOLECULE
iodomethane
    5     4     0     0     0
SMALL
USER_CHARGES

@<TRIPOS>ATOM
      1 C1          0.1099   -0.0900   -0.1201 C.3       1 MOL         0.0361
      2 I1         -1.1366    0.9313    1.2449 I         1 MOL        -0.2435
      3 H1          0.7691    0.6051   -0.6488 H         1 MOL         0.0691
      4 H2          0.7395   -0.8226    0.3935 H         1 MOL         0.0691
      5 H3         -0.4820   -0.6237   -0.8694 H         1 MOL         0.0691
@<TRIPOS>BOND
     1    1    2 1
     2    1    3 1
     3    1    4 1
     4    1    5 1
