@<TRIPOS>MOLECULE
(Z)-1,2-dichloroethylene
    6     5     0     0     0
SMALL
USER_CHARGES

@<TRIPOS>ATOM
      1 C1         -0.6314    0.0855   -0.1906 C.2       1 MOL        -0.0738
      2 C2          0.6316   -0.0857    0.1906 C.2       1 MOL        -0.0738
      3 Cl1         1.7840   -0.9099   -0.7716 Cl        1 MOL        -0.0868
      4 Cl2        -1.2353   -0.5005   -1.6824 Cl        1 MOL        -0.0868
      5 H1         -1.3859    0.6000    0.3893 H         1 MOL         0.1606
      6 H2          1.0478    0.2702    1.1237 H         1 MOL         0.1606
@<TRIPOS>BOND
     1    1    2 2
     2    2    3 1
     3    1    4 1
     4    1    5 1
     5    2    6 1
