@<TRIPOS>MOLECULE
1,2,3,4,5,6-hexachlorobenzene
   12    12     0     0     0
SMALL
USER_CHARGES

@<TRIPOS>ATOM
      1 C1          1.8851   -1.0363   -0.1124 C.ar      1 MOL         0.0261
      2 C2          2.9210   -1.6309    0.6081 C.ar      1 MOL         0.0262
      3 C3          2.8783   -1.6520    2.0022 C.ar      1 MOL         0.0262
      4 C4          1.7997   -1.0786    2.6757 C.ar      1 MOL         0.0262
      5 C5          0.7638   -0.4841    1.9551 C.ar      1 MOL         0.0262
      6 C6          0.8066   -0.4630    0.5610 C.ar      1 MOL         0.0262
      7 Cl1        -0.4882    0.2802   -0.3397 Cl        1 MOL        -0.0262
      8 Cl2        -0.5847    0.2322    2.7971 Cl        1 MOL        -0.0262
      9 Cl3         1.7463   -1.1045    4.4183 Cl        1 MOL        -0.0262
     10 Cl4         4.1730   -2.3955    2.9028 Cl        1 MOL        -0.0262
     11 Cl5         4.2693   -2.3475   -0.2338 Cl        1 MOL        -0.0262
     12 Cl6         1.9387   -1.0098   -1.8552 Cl        1 MOL        -0.0262
@<TRIPOS>BOND
     1    1    6 ar
     2    1    2 ar
     3    2    3 ar
     4    3    4 ar
     5    4    5 ar
     6    5    6 ar
     7    6    7 1
     8    5    8 1
     9    4    9 1
    10    3   10 1
    11    2   11 1
    12    1   12 1
