@<TRIPOS>MOLECULE
(2R,3R,4S,5S,6R)-6-(hydroxymethyl)tetrahydropyran-2,3,4,5-tetrol
   24    24     0     0     0
SMALL
USER_CHARGES

@<TRIPOS>ATOM
      1 C1          0.7245    1.2766   -2.3060 C.3       1 MOL         0.1355
      2 C2         -0.0643   -0.0218   -2.1696 C.3       1 MOL         0.1471
      3 H1         -0.8141   -0.0425   -2.9717 H         1 MOL         0.0700
      4 C3         -0.7391   -0.1332   -0.8004 C.3       1 MOL         0.1207
      5 H2         -0.0002   -0.0005    0.0002 H         1 MOL         0.0636
      6 C4         -1.4240   -1.4908   -0.6420 C.3       1 MOL         0.1067
      7 H3         -2.3430   -1.5282   -1.2403 H         1 MOL         0.0659
      8 C5         -0.4804   -2.6337   -1.0165 C.3       1 MOL         0.0864
      9 H4          0.2643   -2.7784   -0.2238 H         1 MOL         0.0755
     10 C6          0.2035   -2.3731   -2.3586 C.3       1 MOL         0.3061
     11 H5         -0.5185   -2.4255   -3.1834 H         1 MOL         0.0521
     12 O1          0.8515   -1.1032   -2.3511 O.3       1 MOL        -0.4361
     13 O2          1.1658   -3.4061   -2.5664 O.3       1 MOL        -0.6018
     14 O3         -1.2431   -3.8371   -1.0963 O.3       1 MOL        -0.6041
     15 O4         -1.8238   -1.6378    0.7213 O.3       1 MOL        -0.6071
     16 O5         -1.7092    0.9021   -0.6673 O.3       1 MOL        -0.5980
     17 O6          1.3540    1.3038   -3.5782 O.3       1 MOL        -0.5937
     18 H6          1.4938    1.3415   -1.5307 H         1 MOL         0.0471
     19 H7          0.0588    2.1409   -2.2236 H         1 MOL         0.0471
     20 H8          1.5861   -3.2219   -3.4202 H         1 MOL         0.4343
     21 H9         -0.6209   -4.5412   -1.3343 H         1 MOL         0.4263
     22 H10        -2.2526   -2.5041    0.7882 H         1 MOL         0.4270
     23 H11        -2.1098    0.7944    0.2093 H         1 MOL         0.4257
     24 H12         1.8454    2.1400   -3.6316 H         1 MOL         0.4037
@<TRIPOS>BOND
     1    1    2 1
     2    2    3 1
     3    2   12 1
     4    2    4 1
     5    4    5 1
     6    4    6 1
     7    6    7 1
     8    6    8 1
     9    8    9 1
    10    8   10 1
    11   10   11 1
    12   10   12 1
    13   10   13 1
    14    8   14 1
    15    6   15 1
    16    4   16 1
    17    1   17 1
    18    1   18 1
    19    1   19 1
    20   13   20 1
    21   14   21 1
    22   15   22 1
    23   16   23 1
    24   17   24 1
