@<TRIPOS>MOLECULE
diiodomethane
    5     4     0     0     0
SMALL
USER_CHARGES

@<TRIPOS>ATOM
      1 C1          0.2349   -0.0311    0.0689 C.3       1 MOL         0.1528
      2 I1         -0.5656   -0.3480   -1.8686 I         1 MOL        -0.1794
      3 I2         -1.3703    0.6042    1.3001 I         1 MOL        -0.1794
      4 H1          1.0230    0.7278    0.0411 H         1 MOL         0.1029
      5 H2          0.6780   -0.9528    0.4585 H         1 MOL         0.1029
@<TRIPOS>BOND
     1    1    2 1
     2    1    3 1
     3    1    4 1
     4    1    5 1
