@<TRIPOS>MOLECULE
isopropenylbenzene
   19    19     0     0     0
SMALL
USER_CHARGES

@<TRIPOS>ATOM
      1 C1          1.9303    0.2624   -2.3738 C.3       1 MOL        -0.0576
      2 C2          1.9297   -1.0142   -1.5660 C.2       1 MOL        -0.0653
      3 C3          1.9830   -2.1963   -2.2092 C.2       1 MOL        -0.2185
      4 C4          1.8851   -1.0363   -0.1124 C.ar      1 MOL        -0.0525
      5 C5          2.9210   -1.6309    0.6081 C.ar      1 MOL        -0.1182
      6 C6          2.8783   -1.6520    2.0022 C.ar      1 MOL        -0.1312
      7 C7          1.7997   -1.0786    2.6757 C.ar      1 MOL        -0.1296
      8 C8          0.7638   -0.4841    1.9551 C.ar      1 MOL        -0.1312
      9 C9          0.8066   -0.4630    0.5610 C.ar      1 MOL        -0.1182
     10 H1          0.9025    0.5547   -2.6143 H         1 MOL         0.0441
     11 H2          2.3984    1.0753   -1.8092 H         1 MOL         0.0441
     12 H3          2.4734    0.1580   -3.3193 H         1 MOL         0.0441
     13 H4          1.9998   -3.1468   -1.6840 H         1 MOL         0.1148
     14 H5          2.0221   -2.2452   -3.2931 H         1 MOL         0.1148
     15 H6          3.7685   -2.0819    0.0975 H         1 MOL         0.1341
     16 H7          3.6847   -2.1151    2.5634 H         1 MOL         0.1310
     17 H8          1.7663   -1.0951    3.7611 H         1 MOL         0.1304
     18 H9         -0.0759   -0.0376    2.4796 H         1 MOL         0.1310
     19 H10        -0.0085    0.0041    0.0133 H         1 MOL         0.1341
@<TRIPOS>BOND
     1    1    2 1
     2    2    3 2
     3    2    4 1
     4    4    9 ar
     5    4    5 ar
     6    5    6 ar
     7    6    7 ar
     8    7    8 ar
     9    8    9 ar
    10    1   10 1
    11    1   11 1
    12    1   12 1
    13    3   13 1
    14    3   14 1
    15    5   15 1
    16    6   16 1
    17    7   17 1
    18    8   18 1
    19    9   19 1
