@<TRIPOS>MOLECULE
butylbenzene
   24    24     0     0     0
SMALL
USER_CHARGES

@<TRIPOS>ATOM
      1 C1         -0.0241    1.0480    0.3161 C.3       1 MOL        -0.0920
      2 C2         -0.5552    1.9380   -0.7962 C.3       1 MOL        -0.0808
      3 C3          0.3242    1.8603   -2.0442 C.3       1 MOL        -0.0769
      4 C4         -0.2155    2.7586   -3.1608 C.3       1 MOL        -0.0363
      5 C5          0.6480    2.6862   -4.3949 C.ar      1 MOL        -0.0765
      6 C6          1.7159    3.5697   -4.5515 C.ar      1 MOL        -0.1278
      7 C7          2.5146    3.5030   -5.6931 C.ar      1 MOL        -0.1286
      8 C8          2.2454    2.5529   -6.6782 C.ar      1 MOL        -0.1325
      9 C9          1.1773    1.6694   -6.5216 C.ar      1 MOL        -0.1286
     10 C10         0.3786    1.7361   -5.3800 C.ar      1 MOL        -0.1278
     11 H1         -0.6595    1.1099    1.2053 H         1 MOL         0.0336
     12 H2          0.9928    1.3384    0.5991 H         1 MOL         0.0336
     13 H3         -0.0004    0.0041   -0.0122 H         1 MOL         0.0336
     14 H4         -0.6014    2.9728   -0.4372 H         1 MOL         0.0378
     15 H5         -1.5790    1.6333   -1.0423 H         1 MOL         0.0378
     16 H6          1.3494    2.1577   -1.7894 H         1 MOL         0.0438
     17 H7          0.3748    0.8212   -2.3934 H         1 MOL         0.0438
     18 H8         -0.2719    3.7966   -2.8084 H         1 MOL         0.0469
     19 H9         -1.2435    2.4649   -3.4098 H         1 MOL         0.0469
     20 H10         1.9326    4.3134   -3.7892 H         1 MOL         0.1301
     21 H11         3.3463    4.1909   -5.8149 H         1 MOL         0.1296
     22 H12         2.8672    2.5007   -7.5672 H         1 MOL         0.1305
     23 H13         0.9674    0.9300   -7.2888 H         1 MOL         0.1296
     24 H14        -0.4510    1.0432   -5.2668 H         1 MOL         0.1301
@<TRIPOS>BOND
     1    1    2 1
     2    2    3 1
     3    3    4 1
     4    4    5 1
     5    5   10 ar
     6    5    6 ar
     7    6    7 ar
     8    7    8 ar
     9    8    9 ar
    10    9   10 ar
    11    1   11 1
    12    1   12 1
    13    1   13 1
    14    2   14 1
    15    2   15 1
    16    3   16 1
    17    3   17 1
    18    4   18 1
    19    4   19 1
    20    6   20 1
    21    7   21 1
    22    8   22 1
    23    9   23 1
    24   10   24 1
