@<TRIPOS>MOLECULE
4-ethylpyridine
   17    17     0     0     0
SMALL
USER_CHARGES

@<TRIPOS>ATOM
      1 C1          2.0260    2.3333    1.4326 C.3       1 MOL        -0.0896
      2 C2          2.3469    0.8982    1.0445 C.3       1 MOL        -0.0463
      3 C3          1.3879   -0.0684    1.6522 C.ar      1 MOL        -0.0388
      4 C4          0.2265   -0.4197    0.9733 C.ar      1 MOL        -0.2458
      5 C5         -0.6317   -1.3224    1.5803 C.ar      1 MOL         0.3951
      6 N1         -0.4092   -1.8816    2.7908 N.ar      1 MOL        -0.6691
      7 C6          0.7299   -1.5161    3.4206 C.ar      1 MOL         0.3951
      8 C7          1.6520   -0.6227    2.8997 C.ar      1 MOL        -0.2458
      9 H1          2.7356    3.0352    0.9815 H         1 MOL         0.0386
     10 H2          2.0767    2.4515    2.5196 H         1 MOL         0.0386
     11 H3          1.0195    2.6174    1.1071 H         1 MOL         0.0386
     12 H4          3.3687    0.6498    1.3560 H         1 MOL         0.0507
     13 H5          2.3306    0.7973   -0.0476 H         1 MOL         0.0507
     14 H6         -0.0080   -0.0059   -0.0017 H         1 MOL         0.1432
     15 H7         -1.5505   -1.6300    1.0917 H         1 MOL         0.0208
     16 H8          0.8895   -1.9761    4.3902 H         1 MOL         0.0208
     17 H9          2.5490   -0.3683    3.4537 H         1 MOL         0.1432
@<TRIPOS>BOND
     1    1    2 1
     2    2    3 1
     3    3    8 ar
     4    3    4 ar
     5    4    5 ar
     6    5    6 ar
     7    6    7 ar
     8    7    8 ar
     9    1    9 1
    10    1   10 1
    11    1   11 1
    12    2   12 1
    13    2   13 1
    14    4   14 1
    15    5   15 1
    16    7   16 1
    17    8   17 1
