@<TRIPOS>MOLECULE
ethylbenzene
   18    18     0     0     0
SMALL
USER_CHARGES

@<TRIPOS>ATOM
      1 C1          2.6297    0.2302   -2.1290 C.3       1 MOL        -0.0889
      2 C2          1.9309   -1.0140   -1.6029 C.3       1 MOL        -0.0394
      3 C3          1.8851   -1.0363   -0.1124 C.ar      1 MOL        -0.0768
      4 C4          2.9210   -1.6309    0.6081 C.ar      1 MOL        -0.1276
      5 C5          2.8783   -1.6520    2.0022 C.ar      1 MOL        -0.1283
      6 C6          1.7997   -1.0786    2.6757 C.ar      1 MOL        -0.1339
      7 C7          0.7638   -0.4841    1.9551 C.ar      1 MOL        -0.1283
      8 C8          0.8066   -0.4630    0.5610 C.ar      1 MOL        -0.1276
      9 H1          2.6581    0.2371   -3.2239 H         1 MOL         0.0362
     10 H2          3.6605    0.2685   -1.7629 H         1 MOL         0.0362
     11 H3          2.1190    1.1417   -1.8004 H         1 MOL         0.0362
     12 H4          2.4449   -1.9107   -1.9700 H         1 MOL         0.0458
     13 H5          0.9114   -1.0640   -2.0044 H         1 MOL         0.0458
     14 H6          3.7649   -2.0803    0.0915 H         1 MOL         0.1307
     15 H7          3.6850   -2.1148    2.5632 H         1 MOL         0.1296
     16 H8          1.7662   -1.0949    3.7611 H         1 MOL         0.1300
     17 H9         -0.0762   -0.0382    2.4794 H         1 MOL         0.1296
     18 H10        -0.0050    0.0028    0.0083 H         1 MOL         0.1307
@<TRIPOS>BOND
     1    1    2 1
     2    2    3 1
     3    3    8 ar
     4    3    4 ar
     5    4    5 ar
     6    5    6 ar
     7    6    7 ar
     8    7    8 ar
     9    1    9 1
    10    1   10 1
    11    1   11 1
    12    2   12 1
    13    2   13 1
    14    4   14 1
    15    5   15 1
    16    6   16 1
    17    7   17 1
    18    8   18 1
