@<TRIPOS>MOLECULE
2-iodophenol
   13    13     0     0     0
SMALL
USER_CHARGES

@<TRIPOS>ATOM
      1 C1          1.8851   -1.0363   -0.1124 C.ar      1 MOL        -0.0786
      2 C2          2.9210   -1.6309    0.6081 C.ar      1 MOL        -0.1699
      3 C3          2.8783   -1.6520    2.0022 C.ar      1 MOL        -0.0627
      4 C4          1.7997   -1.0786    2.6757 C.ar      1 MOL        -0.0634
      5 C5          0.7638   -0.4841    1.9551 C.ar      1 MOL         0.1636
      6 C6          0.8066   -0.4630    0.5610 C.ar      1 MOL        -0.1618
      7 O1         -0.3083    0.0866    2.5748 O.3       1 MOL        -0.4910
      8 I1          1.7841   -1.1377    4.7644 I         1 MOL        -0.1438
      9 H1          1.9182   -1.0204   -1.1980 H         1 MOL         0.1390
     10 H2          3.7604   -2.0777    0.0832 H         1 MOL         0.1391
     11 H3          3.6978   -2.1197    2.5418 H         1 MOL         0.1448
     12 H4          0.0036   -0.0010   -0.0075 H         1 MOL         0.1549
     13 H5         -0.2195    0.0062    3.5370 H         1 MOL         0.4298
@<TRIPOS>BOND
     1    1    6 ar
     2    1    2 ar
     3    2    3 ar
     4    3    4 ar
     5    4    5 ar
     6    5    6 ar
     7    5    7 1
     8    4    8 1
     9    1    9 1
    10    2   10 1
    11    3   11 1
    12    6   12 1
    13    7   13 1
