@<TRIPOS>MOLECULE
2-chloro-4-hydroxy-3,5-dimethoxy-benzaldehyde
   23    23     0     0     0
SMALL
USER_CHARGES

@<TRIPOS>ATOM
      1 C1          1.3510   -2.1261   -2.1502 C.3       1 MOL         0.1115
      2 O1          1.9394   -1.0214   -1.4736 O.3       1 MOL        -0.3449
      3 C2          1.8851   -1.0363   -0.1124 C.ar      1 MOL         0.0038
      4 C3          2.9210   -1.6309    0.6081 C.ar      1 MOL        -0.0581
      5 C4          2.8783   -1.6520    2.0022 C.ar      1 MOL        -0.2024
      6 C5          1.7997   -1.0786    2.6757 C.ar      1 MOL         0.0565
      7 C6          0.7638   -0.4841    1.9551 C.ar      1 MOL         0.0677
      8 C7          0.8066   -0.4630    0.5610 C.ar      1 MOL         0.1322
      9 O2         -0.2048    0.1178   -0.1454 O.3       1 MOL        -0.4748
     10 O3         -0.2996    0.0818    2.5963 O.3       1 MOL        -0.3122
     11 C8         -1.4161   -0.7625    2.8640 C.3       1 MOL         0.1128
     12 Cl1         1.7357   -1.1008    4.4065 Cl        1 MOL        -0.0593
     13 C9          3.9875   -2.2815    2.7093 C.2       1 MOL         0.5826
     14 O4          5.1532   -1.8970    2.6045 O.2       1 MOL        -0.5062
     15 H1          1.4607   -1.9938   -3.2293 H         1 MOL         0.0455
     16 H2          0.2926   -2.1945   -1.8863 H         1 MOL         0.0455
     17 H3          1.8607   -3.0428   -1.8441 H         1 MOL         0.0455
     18 H4          3.7598   -2.0747    0.0768 H         1 MOL         0.1665
     19 H5         -0.0289    0.0512   -1.0966 H         1 MOL         0.4386
     20 H6         -2.1850   -0.1841    3.3754 H         1 MOL         0.0453
     21 H7         -1.0903   -1.5976    3.4839 H         1 MOL         0.0453
     22 H8         -1.8035   -1.1350    1.9162 H         1 MOL         0.0453
     23 H9          3.7470   -3.1441    3.3652 H         1 MOL         0.0130
@<TRIPOS>BOND
     1    1    2 1
     2    2    3 1
     3    3    8 ar
     4    3    4 ar
     5    4    5 ar
     6    5    6 ar
     7    6    7 ar
     8    7    8 ar
     9    8    9 1
    10    7   10 1
    11   10   11 1
    12    6   12 1
    13    5   13 1
    14   13   14 2
    15    1   15 1
    16    1   16 1
    17    1   17 1
    18    4   18 1
    19    9   19 1
    20   11   20 1
    21   11   21 1
    22   11   22 1
    23   13   23 1
