@<TRIPOS>MOLECULE
ethylene glycol
   10     9     0     0     0
SMALL
USER_CHARGES

@<TRIPOS>ATOM
      1 C1         -2.1461   -0.1936   -0.1209 C.3       1 MOL         0.1270
      2 C2         -0.8936    0.4506    0.4416 C.3       1 MOL         0.1270
      3 O1         -0.8122    1.7920   -0.0246 O.3       1 MOL        -0.5956
      4 O2         -3.2827    0.5410    0.3172 O.3       1 MOL        -0.5956
      5 H1         -2.2509   -1.2251    0.2298 H         1 MOL         0.0332
      6 H2         -2.1275   -0.1762   -1.2145 H         1 MOL         0.0332
      7 H3          0.0049   -0.0799    0.1119 H         1 MOL         0.0332
      8 H4         -0.9307    0.4694    1.5347 H         1 MOL         0.0332
      9 H5         -0.0025    2.1702    0.3539 H         1 MOL         0.4021
     10 H6         -4.0613    0.1016   -0.0604 H         1 MOL         0.4021
@<TRIPOS>BOND
     1    1    2 1
     2    2    3 1
     3    1    4 1
     4    1    5 1
     5    1    6 1
     6    2    7 1
     7    2    8 1
     8    3    9 1
     9    4   10 1
