@<TRIPOS>MOLECULE
2-isopropoxypropane
   21    20     0     0     0
SMALL
USER_CHARGES

@<TRIPOS>ATOM
      1 C1          0.2247   -0.0420    1.7545 C.3       1 MOL        -0.1068
      2 C2          1.3532    0.9191    1.4130 C.3       1 MOL         0.1373
      3 C3          2.1168    0.4790    0.1733 C.3       1 MOL        -0.1068
      4 O1          0.8123    2.2184    1.1940 O.3       1 MOL        -0.4169
      5 C4          1.7303    3.2332    1.5735 C.3       1 MOL         0.1373
      6 C5          1.5286    4.4539    0.6863 C.3       1 MOL        -0.1068
      7 C6          1.5331    3.5678    3.0456 C.3       1 MOL        -0.1068
      8 H1         -0.3178    0.2837    2.6473 H         1 MOL         0.0420
      9 H2         -0.4824   -0.1110    0.9209 H         1 MOL         0.0420
     10 H3          0.6072   -1.0542    1.9266 H         1 MOL         0.0420
     11 H4          2.0424    0.9895    2.2609 H         1 MOL         0.0328
     12 H5          2.9259    1.1766   -0.0636 H         1 MOL         0.0420
     13 H6          1.4430    0.4190   -0.6881 H         1 MOL         0.0420
     14 H7          2.5445   -0.5206    0.3081 H         1 MOL         0.0420
     15 H8          2.7420    2.8389    1.4234 H         1 MOL         0.0328
     16 H9          2.2211    5.2590    0.9505 H         1 MOL         0.0420
     17 H10         1.6845    4.1890   -0.3650 H         1 MOL         0.0420
     18 H11         0.5037    4.8329    0.7661 H         1 MOL         0.0420
     19 H12         2.2257    4.3485    3.3746 H         1 MOL         0.0420
     20 H13         1.6920    2.6765    3.6621 H         1 MOL         0.0420
     21 H14         0.5085    3.9046    3.2380 H         1 MOL         0.0420
@<TRIPOS>BOND
     1    1    2 1
     2    2    3 1
     3    2    4 1
     4    4    5 1
     5    5    6 1
     6    5    7 1
     7    1    8 1
     8    1    9 1
     9    1   10 1
    10    2   11 1
    11    3   12 1
    12    3   13 1
    13    3   14 1
    14    5   15 1
    15    6   16 1
    16    6   17 1
    17    6   18 1
    18    7   19 1
    19    7   20 1
    20    7   21 1
