@<TRIPOS>MOLECULE
2-methylbenzaldehyde
   17    17     0     0     0
SMALL
USER_CHARGES

@<TRIPOS>ATOM
      1 C1          1.9570   -1.0272   -1.6044 C.3       1 MOL        -0.0648
      2 C2          1.8851   -1.0363   -0.1124 C.ar      1 MOL        -0.0339
      3 C3          2.9210   -1.6309    0.6081 C.ar      1 MOL        -0.1450
      4 C4          2.8783   -1.6520    2.0022 C.ar      1 MOL        -0.0988
      5 C5          1.7997   -1.0786    2.6757 C.ar      1 MOL        -0.1467
      6 C6          0.7638   -0.4841    1.9551 C.ar      1 MOL        -0.0733
      7 C7          0.8066   -0.4630    0.5610 C.ar      1 MOL        -0.1936
      8 C8         -0.2877    0.1650   -0.1669 C.2       1 MOL         0.5751
      9 O1         -1.4447    0.1989    0.2578 O.2       1 MOL        -0.5254
     10 H1          2.4717   -0.1251   -1.9489 H         1 MOL         0.0496
     11 H2          2.4956   -1.9056   -1.9752 H         1 MOL         0.0496
     12 H3          0.9544   -1.0527   -2.0441 H         1 MOL         0.0496
     13 H4          3.7661   -2.0799    0.0932 H         1 MOL         0.1355
     14 H5          3.6843   -2.1151    2.5638 H         1 MOL         0.1348
     15 H6          1.7664   -1.0953    3.7613 H         1 MOL         0.1374
     16 H7         -0.0709   -0.0405    2.4920 H         1 MOL         0.1502
     17 H8         -0.0475    0.6281   -1.1475 H         1 MOL        -0.0003
@<TRIPOS>BOND
     1    1    2 1
     2    2    7 ar
     3    2    3 ar
     4    3    4 ar
     5    4    5 ar
     6    5    6 ar
     7    6    7 ar
     8    7    8 1
     9    8    9 2
    10    1   10 1
    11    1   11 1
    12    1   12 1
    13    3   13 1
    14    4   14 1
    15    5   15 1
    16    6   16 1
    17    8   17 1
