@<TRIPOS>MOLECULE
ethanethiol
    9     8     0     0     0
SMALL
USER_CHARGES

@<TRIPOS>ATOM
      1 C1          0.4412   -0.3496    0.9395 C.3       1 MOL        -0.0988
      2 C2          1.8518   -0.8681    0.7340 C.3       1 MOL         0.0059
      3 S1          2.9258    0.4446    0.0921 S.3       1 MOL        -0.3811
      4 H1         -0.2216   -1.1305    1.3274 H         1 MOL         0.0433
      5 H2          0.4213    0.4995    1.6311 H         1 MOL         0.0433
      6 H3          0.0269   -0.0085   -0.0151 H         1 MOL         0.0433
      7 H4          1.8501   -1.7008    0.0240 H         1 MOL         0.0720
      8 H5          2.2645   -1.2294    1.6807 H         1 MOL         0.0720
      9 H6          2.7673    1.2796    1.1282 H         1 MOL         0.2001
@<TRIPOS>BOND
     1    1    2 1
     2    2    3 1
     3    1    4 1
     4    1    5 1
     5    1    6 1
     6    2    7 1
     7    2    8 1
     8    3    9 1
