@<TRIPOS>MOLECULE
3,3-dimethylpentane
   23    22     0     0     0
SMALL
USER_CHARGES

@<TRIPOS>ATOM
      1 C1         -0.5076   -0.4808    0.8472 C.3       1 MOL        -0.0915
      2 C2         -1.9974   -0.5983    0.5479 C.3       1 MOL        -0.0701
      3 C3         -2.8406   -1.3572    1.6082 C.3       1 MOL        -0.0507
      4 C4         -2.7382   -0.6454    2.9740 C.3       1 MOL        -0.0877
      5 C5         -4.3188   -1.3068    1.1665 C.3       1 MOL        -0.0877
      6 C6         -2.3925   -2.8314    1.8011 C.3       1 MOL        -0.0701
      7 C7         -2.4712   -3.7148    0.5617 C.3       1 MOL        -0.0915
      8 H1          0.0216    0.0638    0.0604 H         1 MOL         0.0330
      9 H2         -0.0637   -1.4801    0.9097 H         1 MOL         0.0330
     10 H3         -0.3243    0.0189    1.8023 H         1 MOL         0.0330
     11 H4         -2.3988    0.4171    0.4296 H         1 MOL         0.0378
     12 H5         -2.1138   -1.0780   -0.4319 H         1 MOL         0.0378
     13 H6         -3.3271   -1.1658    3.7378 H         1 MOL         0.0334
     14 H7         -3.0956    0.3882    2.9209 H         1 MOL         0.0334
     15 H8         -1.6996   -0.6116    3.3232 H         1 MOL         0.0334
     16 H9         -4.9721   -1.8268    1.8748 H         1 MOL         0.0334
     17 H10        -4.6722   -0.2731    1.0802 H         1 MOL         0.0334
     18 H11        -4.4540   -1.7853    0.1896 H         1 MOL         0.0334
     19 H12        -1.3627   -2.8601    2.1783 H         1 MOL         0.0378
     20 H13        -3.0076   -3.2940    2.5845 H         1 MOL         0.0378
     21 H14        -2.1342   -4.7273    0.8081 H         1 MOL         0.0330
     22 H15        -3.4947   -3.7932    0.1850 H         1 MOL         0.0330
     23 H16        -1.8301   -3.3433   -0.2424 H         1 MOL         0.0330
@<TRIPOS>BOND
     1    1    2 1
     2    2    3 1
     3    3    4 1
     4    3    5 1
     5    3    6 1
     6    6    7 1
     7    1    8 1
     8    1    9 1
     9    1   10 1
    10    2   11 1
    11    2   12 1
    12    4   13 1
    13    4   14 1
    14    4   15 1
    15    5   16 1
    16    5   17 1
    17    5   18 1
    18    6   19 1
    19    6   20 1
    20    7   21 1
    21    7   22 1
    22    7   23 1
