@<TRIPOS>MOLECULE
propyl 4-hydroxybenzoate
   25    25     0     0     0
SMALL
USER_CHARGES

@<TRIPOS>ATOM
      1 C1          0.1273   -0.8831    0.7360 C.3       1 MOL        -0.0919
      2 C2          1.3675   -0.6499    1.5799 C.3       1 MOL        -0.1065
      3 C3          1.2747   -1.3491    2.9275 C.3       1 MOL         0.1336
      4 O1          2.4629   -1.0899    3.6622 O.3       1 MOL        -0.4330
      5 C4          2.5354   -1.6512    4.9011 C.2       1 MOL         0.6501
      6 O2          1.6787   -2.3468    5.4242 O.2       1 MOL        -0.5347
      7 C5          3.8191   -1.3053    5.5621 C.ar      1 MOL        -0.1565
      8 C6          4.0945   -1.7821    6.8438 C.ar      1 MOL        -0.0461
      9 C7          5.3007   -1.4571    7.4645 C.ar      1 MOL        -0.1944
     10 C8          6.2313   -0.6554    6.8036 C.ar      1 MOL         0.1483
     11 C9          5.9558   -0.1786    5.5220 C.ar      1 MOL        -0.1944
     12 C10         4.7497   -0.5036    4.9013 C.ar      1 MOL        -0.0461
     13 O3          7.4085   -0.3378    7.4086 O.3       1 MOL        -0.4923
     14 H1          0.2089   -0.3742   -0.2298 H         1 MOL         0.0369
     15 H2         -0.0070   -1.9526    0.5458 H         1 MOL         0.0369
     16 H3         -0.7686   -0.5135    1.2448 H         1 MOL         0.0369
     17 H4          1.5167    0.4257    1.7329 H         1 MOL         0.0525
     18 H5          2.2556   -1.0033    1.0424 H         1 MOL         0.0525
     19 H6          0.4211   -0.9770    3.5030 H         1 MOL         0.0640
     20 H7          1.1732   -2.4316    2.7998 H         1 MOL         0.0640
     21 H8          3.3766   -2.4070    7.3685 H         1 MOL         0.1493
     22 H9          5.5099   -1.8324    8.4624 H         1 MOL         0.1491
     23 H10         6.6768    0.4468    5.0024 H         1 MOL         0.1491
     24 H11         4.5454   -0.1274    3.9020 H         1 MOL         0.1493
     25 H12         7.4531   -0.7410    8.2902 H         1 MOL         0.4234
@<TRIPOS>BOND
     1    1    2 1
     2    2    3 1
     3    3    4 1
     4    4    5 1
     5    5    6 2
     6    5    7 1
     7    7   12 ar
     8    7    8 ar
     9    8    9 ar
    10    9   10 ar
    11   10   11 ar
    12   11   12 ar
    13   10   13 1
    14    1   14 1
    15    1   15 1
    16    1   16 1
    17    2   17 1
    18    2   18 1
    19    3   19 1
    20    3   20 1
    21    8   21 1
    22    9   22 1
    23   11   23 1
    24   12   24 1
    25   13   25 1
