@<TRIPOS>MOLECULE
carbon tetrachloride
    5     4     0     0     0
SMALL
USER_CHARGES

@<TRIPOS>ATOM
      1 C1         -0.0003   -0.0003    0.0001 C.3       1 MOL         0.3243
      2 Cl1         1.6167    0.7005    0.2651 Cl        1 MOL        -0.0811
      3 Cl2         0.1223   -1.7773   -0.0365 Cl        1 MOL        -0.0811
      4 Cl3        -0.6529    0.5829   -1.5520 Cl        1 MOL        -0.0811
      5 Cl4        -1.0857    0.4943    1.3234 Cl        1 MOL        -0.0811
@<TRIPOS>BOND
     1    1    2 1
     2    1    3 1
     3    1    4 1
     4    1    5 1
