@<TRIPOS>MOLECULE
1-bromopentane
   17    16     0     0     0
SMALL
USER_CHARGES

@<TRIPOS>ATOM
      1 C1         -1.1141   -1.3531    1.7100 C.3       1 MOL        -0.0928
      2 C2         -0.4815   -0.9323    0.3922 C.3       1 MOL        -0.0790
      3 C3          0.4410    0.2733    0.5771 C.3       1 MOL        -0.0818
      4 C4          1.1027    0.7352   -0.7240 C.3       1 MOL        -0.0814
      5 C5          2.0180    1.9334   -0.5329 C.3       1 MOL        -0.0086
      6 Br1         2.8050    2.4371   -2.2431 Br        1 MOL        -0.1801
      7 H1         -1.7698   -2.2160    1.5571 H         1 MOL         0.0342
      8 H2         -1.7139   -0.5413    2.1335 H         1 MOL         0.0342
      9 H3         -0.3492   -1.6334    2.4411 H         1 MOL         0.0342
     10 H4          0.0848   -1.7754   -0.0200 H         1 MOL         0.0411
     11 H5         -1.2797   -0.6958   -0.3194 H         1 MOL         0.0411
     12 H6         -0.1204    1.1055    1.0194 H         1 MOL         0.0413
     13 H7          1.2329    0.0126    1.2904 H         1 MOL         0.0413
     14 H8          1.6796   -0.1057   -1.1299 H         1 MOL         0.0561
     15 H9          0.3293    0.9653   -1.4675 H         1 MOL         0.0561
     16 H10         2.8511    1.7104    0.1390 H         1 MOL         0.0720
     17 H11         1.4831    2.8166   -0.1757 H         1 MOL         0.0720
@<TRIPOS>BOND
     1    1    2 1
     2    2    3 1
     3    3    4 1
     4    4    5 1
     5    5    6 1
     6    1    7 1
     7    1    8 1
     8    1    9 1
     9    2   10 1
    10    2   11 1
    11    3   12 1
    12    3   13 1
    13    4   14 1
    14    4   15 1
    15    5   16 1
    16    5   17 1
