@<TRIPOS>MOLECULE
1-(4-pyridyl)ethanone
   16    16     0     0     0
SMALL
USER_CHARGES

@<TRIPOS>ATOM
      1 C1          3.7675    0.7174    1.4135 C.3       1 MOL        -0.1982
      2 C2          2.3223    0.8750    1.0600 C.2       1 MOL         0.5734
      3 O1          2.0050    1.7850    0.3012 O.2       1 MOL        -0.5201
      4 C3          1.3879   -0.0684    1.6522 C.ar      1 MOL        -0.1351
      5 C4          0.2265   -0.4197    0.9733 C.ar      1 MOL        -0.2057
      6 C5         -0.6317   -1.3224    1.5803 C.ar      1 MOL         0.3863
      7 N1         -0.4092   -1.8816    2.7908 N.ar      1 MOL        -0.6480
      8 C6          0.7299   -1.5161    3.4206 C.ar      1 MOL         0.3863
      9 C7          1.6520   -0.6227    2.8997 C.ar      1 MOL        -0.2057
     10 H1          4.0772    1.2823    2.3070 H         1 MOL         0.0679
     11 H2          4.4487    0.9957    0.5944 H         1 MOL         0.0679
     12 H3          4.0389   -0.3256    1.6555 H         1 MOL         0.0679
     13 H4         -0.0108   -0.0052   -0.0008 H         1 MOL         0.1543
     14 H5         -1.5513   -1.6283    1.0929 H         1 MOL         0.0273
     15 H6          0.8894   -1.9765    4.3899 H         1 MOL         0.0273
     16 H7          2.5483   -0.3695    3.4560 H         1 MOL         0.1543
@<TRIPOS>BOND
     1    1    2 1
     2    2    3 2
     3    2    4 1
     4    4    9 ar
     5    4    5 ar
     6    5    6 ar
     7    6    7 ar
     8    7    8 ar
     9    8    9 ar
    10    1   10 1
    11    1   11 1
    12    1   12 1
    13    5   13 1
    14    6   14 1
    15    8   15 1
    16    9   16 1
