@<TRIPOS>MOLECULE
(3S)-hexan-3-ol
   21    20     0     0     0
SMALL
USER_CHARGES

@<TRIPOS>ATOM
      1 C1          0.8931   -0.3155    0.3468 C.3       1 MOL        -0.0921
      2 C2          1.2136    0.1404    1.7619 C.3       1 MOL        -0.0794
      3 C3          0.1532   -0.3405    2.7584 C.3       1 MOL        -0.1113
      4 C4          0.4585    0.1093    4.1927 C.3       1 MOL         0.1350
      5 H1          1.4274   -0.2956    4.5080 H         1 MOL         0.0752
      6 C5         -0.6283   -0.2989    5.1946 C.3       1 MOL        -0.1112
      7 C6         -0.3440    0.1380    6.6224 C.3       1 MOL        -0.0908
      8 O1          0.5622    1.5341    4.2072 O.3       1 MOL        -0.5948
      9 H2          1.6543    0.0314   -0.3594 H         1 MOL         0.0328
     10 H3          0.8419   -1.4074    0.2888 H         1 MOL         0.0328
     11 H4         -0.0736    0.0874    0.0289 H         1 MOL         0.0328
     12 H5          2.1969   -0.2488    2.0503 H         1 MOL         0.0468
     13 H6          1.2800    1.2341    1.7749 H         1 MOL         0.0468
     14 H7         -0.8215    0.0582    2.4499 H         1 MOL         0.0423
     15 H8          0.0934   -1.4332    2.7108 H         1 MOL         0.0423
     16 H9         -1.5851    0.1354    4.8776 H         1 MOL         0.0421
     17 H10        -0.7760   -1.3856    5.1624 H         1 MOL         0.0421
     18 H11        -1.1468   -0.1763    7.2968 H         1 MOL         0.0380
     19 H12         0.5892   -0.3138    6.9738 H         1 MOL         0.0380
     20 H13        -0.2322    1.2233    6.6969 H         1 MOL         0.0380
     21 H14        -0.2931    1.8730    3.9038 H         1 MOL         0.3948
@<TRIPOS>BOND
     1    1    2 1
     2    2    3 1
     3    3    4 1
     4    4    5 1
     5    4    6 1
     6    6    7 1
     7    4    8 1
     8    1    9 1
     9    1   10 1
    10    1   11 1
    11    2   12 1
    12    2   13 1
    13    3   14 1
    14    3   15 1
    15    6   16 1
    16    6   17 1
    17    7   18 1
    18    7   19 1
    19    7   20 1
    20    8   21 1
