@<TRIPOS>MOLECULE
fluorobenzene
   12    12     0     0     0
SMALL
USER_CHARGES

@<TRIPOS>ATOM
      1 C1          1.8851   -1.0363   -0.1124 C.ar      1 MOL        -0.1450
      2 C2          2.9210   -1.6309    0.6081 C.ar      1 MOL        -0.1053
      3 C3          2.8783   -1.6520    2.0022 C.ar      1 MOL        -0.1655
      4 C4          1.7997   -1.0786    2.6757 C.ar      1 MOL         0.1237
      5 C5          0.7638   -0.4841    1.9551 C.ar      1 MOL        -0.1655
      6 C6          0.8066   -0.4630    0.5610 C.ar      1 MOL        -0.1053
      7 F1          1.7584   -1.0989    4.0143 F         1 MOL        -0.1424
      8 H1          1.9187   -1.0200   -1.1979 H         1 MOL         0.1359
      9 H2          3.7609   -2.0773    0.0839 H         1 MOL         0.1368
     10 H3          3.6847   -2.1150    2.5631 H         1 MOL         0.1479
     11 H4         -0.0758   -0.0378    2.4796 H         1 MOL         0.1479
     12 H5         -0.0000   -0.0000    0.0000 H         1 MOL         0.1368
@<TRIPOS>BOND
     1    1    6 ar
     2    1    2 ar
     3    2    3 ar
     4    3    4 ar
     5    4    5 ar
     6    5    6 ar
     7    4    7 1
     8    1    8 1
     9    2    9 1
    10    3   10 1
    11    5   11 1
    12    6   12 1
