@<TRIPOS>MOLECULE
1,2-diethoxyethane
   22    21     0     0     0
SMALL
USER_CHARGES

@<TRIPOS>ATOM
      1 C1          0.2901    0.5589    3.9216 C.3       1 MOL        -0.0968
      2 C2          0.3042    0.8204    2.4305 C.3       1 MOL         0.1314
      3 O1         -0.8526    0.2362    1.8472 O.3       1 MOL        -0.4272
      4 C3         -0.8936    0.4506    0.4416 C.3       1 MOL         0.1274
      5 C4         -2.1461   -0.1936   -0.1209 C.3       1 MOL         0.1274
      6 O2         -2.1145   -1.5886    0.1552 O.3       1 MOL        -0.4272
      7 C5         -3.2680   -2.2457   -0.3510 C.3       1 MOL         0.1314
      8 C6         -3.1758   -3.7212   -0.0269 C.3       1 MOL        -0.0968
      9 H1          1.1693    0.9964    4.4028 H         1 MOL         0.0452
     10 H2         -0.6104    0.9814    4.3791 H         1 MOL         0.0452
     11 H3          0.2752   -0.5172    4.1244 H         1 MOL         0.0452
     12 H4          1.1928    0.3767    1.9715 H         1 MOL         0.0251
     13 H5          0.2958    1.8957    2.2292 H         1 MOL         0.0251
     14 H6         -0.8901    1.5299    0.2612 H         1 MOL         0.0396
     15 H7          0.0000    0.0000    0.0000 H         1 MOL         0.0396
     16 H8         -2.2043   -0.0621   -1.2059 H         1 MOL         0.0396
     17 H9         -3.0385    0.2289    0.3500 H         1 MOL         0.0396
     18 H10        -4.1553   -1.8050    0.1125 H         1 MOL         0.0251
     19 H11        -3.3139   -2.0916   -1.4329 H         1 MOL         0.0251
     20 H12        -4.0507   -4.2582   -0.4037 H         1 MOL         0.0452
     21 H13        -2.2749   -4.1585   -0.4696 H         1 MOL         0.0452
     22 H14        -3.1057   -3.8753    1.0550 H         1 MOL         0.0452
@<TRIPOS>BOND
     1    1    2 1
     2    2    3 1
     3    3    4 1
     4    4    5 1
     5    5    6 1
     6    6    7 1
     7    7    8 1
     8    1    9 1
     9    1   10 1
    10    1   11 1
    11    2   12 1
    12    2   13 1
    13    4   14 1
    14    4   15 1
    15    5   16 1
    16    5   17 1
    17    7   18 1
    18    7   19 1
    19    8   20 1
    20    8   21 1
    21    8   22 1
