@<TRIPOS>MOLECULE
(E)-hept-2-ene
   21    20     0     0     0
SMALL
USER_CHARGES

@<TRIPOS>ATOM
      1 C1          2.5442   -2.3092    4.0254 C.3       1 MOL        -0.0921
      2 C2          2.7860   -2.0758    2.5420 C.3       1 MOL        -0.0800
      3 C3          1.8091   -1.0434    1.9736 C.3       1 MOL        -0.0764
      4 C4          2.0180   -0.7777    0.4795 C.3       1 MOL        -0.0488
      5 C5          1.0587    0.2352   -0.0758 C.2       1 MOL        -0.1698
      6 C6          1.4387    1.3898   -0.6418 C.2       1 MOL        -0.1687
      7 C7          0.4863    2.3962   -1.1971 C.3       1 MOL        -0.0655
      8 H1          3.2456   -3.0481    4.4256 H         1 MOL         0.0332
      9 H2          2.6616   -1.3806    4.5931 H         1 MOL         0.0332
     10 H3          1.5280   -2.6811    4.1898 H         1 MOL         0.0332
     11 H4          2.6762   -3.0260    2.0066 H         1 MOL         0.0382
     12 H5          3.8198   -1.7407    2.4017 H         1 MOL         0.0382
     13 H6          0.7828   -1.4033    2.1187 H         1 MOL         0.0405
     14 H7          1.8960   -0.1043    2.5347 H         1 MOL         0.0405
     15 H8          1.8702   -1.7168   -0.0675 H         1 MOL         0.0436
     16 H9          3.0571   -0.4743    0.3033 H         1 MOL         0.0436
     17 H10         0.0006   -0.0059   -0.0117 H         1 MOL         0.1193
     18 H11         2.4961    1.6314   -0.7108 H         1 MOL         0.1182
     19 H12         0.2044    3.1116   -0.4185 H         1 MOL         0.0398
     20 H13        -0.4208    1.8955   -1.5492 H         1 MOL         0.0398
     21 H14         0.9146    2.9550   -2.0352 H         1 MOL         0.0398
@<TRIPOS>BOND
     1    1    2 1
     2    2    3 1
     3    3    4 1
     4    4    5 1
     5    5    6 2
     6    6    7 1
     7    1    8 1
     8    1    9 1
     9    1   10 1
    10    2   11 1
    11    2   12 1
    12    3   13 1
    13    3   14 1
    14    4   15 1
    15    4   16 1
    16    5   17 1
    17    6   18 1
    18    7   19 1
    19    7   20 1
    20    7   21 1
