@<TRIPOS>MOLECULE
[(1R)-1,5-dimethyl-1-vinyl-hex-4-enyl] acetate
   34    33     0     0     0
SMALL
USER_CHARGES

@<TRIPOS>ATOM
      1 C1         -2.6922    0.8274    2.4837 C.3       1 MOL        -0.0642
      2 C2         -3.1574    2.2535    2.3971 C.2       1 MOL        -0.1063
      3 C3         -3.8619    2.8952    3.3484 C.2       1 MOL        -0.1788
      4 C4         -4.3550    4.3157    3.3217 C.3       1 MOL        -0.0356
      5 C5         -3.3156    5.2689    3.9216 C.3       1 MOL        -0.1031
      6 C6         -3.7272    6.7609    3.9415 C.3       1 MOL         0.2134
      7 C7         -5.0043    6.9710    4.7645 C.3       1 MOL        -0.1227
      8 C8         -3.7700    7.3308    2.5387 C.2       1 MOL        -0.1591
      9 C9         -4.8228    7.8661    1.9083 C.2       1 MOL        -0.2058
     10 O1         -2.6939    7.4708    4.6470 O.3       1 MOL        -0.4473
     11 C10        -2.8896    8.8119    4.7636 C.2       1 MOL         0.6424
     12 O2         -3.8397    9.4522    4.3341 O.2       1 MOL        -0.5551
     13 C11        -1.7425    9.4151    5.5162 C.3       1 MOL        -0.1532
     14 C12        -2.7592    2.9642    1.1314 C.3       1 MOL        -0.0642
     15 H1         -3.4528    0.1582    2.0669 H         1 MOL         0.0419
     16 H2         -2.5244    0.5489    3.5291 H         1 MOL         0.0419
     17 H3         -1.7695    0.6366    1.9311 H         1 MOL         0.0419
     18 H4         -4.1052    2.3538    4.2618 H         1 MOL         0.1177
     19 H5         -4.5476    4.5777    2.2749 H         1 MOL         0.0453
     20 H6         -5.3154    4.4122    3.8354 H         1 MOL         0.0453
     21 H7         -2.3675    5.1694    3.3737 H         1 MOL         0.0661
     22 H8         -3.0778    4.9494    4.9469 H         1 MOL         0.0661
     23 H9         -5.2879    8.0302    4.7729 H         1 MOL         0.0541
     24 H10        -5.8523    6.3946    4.3823 H         1 MOL         0.0541
     25 H11        -4.8452    6.6934    5.8137 H         1 MOL         0.0541
     26 H12        -2.8314    7.2993    1.9865 H         1 MOL         0.1314
     27 H13        -4.7629    8.2520    0.8980 H         1 MOL         0.1155
     28 H14        -5.7838    7.9245    2.4088 H         1 MOL         0.1155
     29 H15        -0.9571    9.7145    4.8177 H         1 MOL         0.0743
     30 H16        -1.3576    8.6965    6.2442 H         1 MOL         0.0743
     31 H17        -2.0881   10.3030    6.0535 H         1 MOL         0.0743
     32 H18        -3.5297    2.8314    0.3648 H         1 MOL         0.0419
     33 H19        -2.6226    4.0403    1.2816 H         1 MOL         0.0419
     34 H20        -1.8156    2.5602    0.7499 H         1 MOL         0.0419
@<TRIPOS>BOND
     1    1    2 1
     2    2    3 2
     3    3    4 1
     4    4    5 1
     5    5    6 1
     6    6    7 1
     7    6    8 1
     8    8    9 2
     9    6   10 1
    10   10   11 1
    11   11   12 2
    12   11   13 1
    13    2   14 1
    14    1   15 1
    15    1   16 1
    16    1   17 1
    17    3   18 1
    18    4   19 1
    19    4   20 1
    20    5   21 1
    21    5   22 1
    22    7   23 1
    23    7   24 1
    24    7   25 1
    25    8   26 1
    26    9   27 1
    27    9   28 1
    28   13   29 1
    29   13   30 1
    30   13   31 1
    31   14   32 1
    32   14   33 1
    33   14   34 1
