@<TRIPOS>MOLECULE
1,1-dichloroethylene
    6     5     0     0     0
SMALL
USER_CHARGES

@<TRIPOS>ATOM
      1 C1         -0.9590    0.0622   -0.5384 C.2       1 MOL        -0.2067
      2 C2         -1.7399   -1.0198   -0.7615 C.2       1 MOL         0.0756
      3 Cl1        -1.2827   -2.5972   -0.2096 Cl        1 MOL        -0.0766
      4 Cl2        -3.2438   -0.8922   -1.6121 Cl        1 MOL        -0.0766
      5 H1         -1.2338    1.0723   -0.8817 H         1 MOL         0.1422
      6 H2          0.0000    0.0000    0.0000 H         1 MOL         0.1422
@<TRIPOS>BOND
     1    1    2 2
     2    2    3 1
     3    2    4 1
     4    1    5 1
     5    1    6 1
