@<TRIPOS>MOLECULE
heptane
   23    22     0     0     0
SMALL
USER_CHARGES

@<TRIPOS>ATOM
      1 C1          1.3992    1.0563   -1.8412 C.3       1 MOL        -0.0924
      2 C2          1.4560   -0.4006   -1.4089 C.3       1 MOL        -0.0795
      3 C3          2.6412   -0.7215   -0.4958 C.3       1 MOL        -0.0785
      4 C4          2.6940   -2.1886   -0.0635 C.3       1 MOL        -0.0790
      5 C5          3.8954   -2.4552    0.8462 C.3       1 MOL        -0.0785
      6 C6          3.9505   -3.9200    1.2795 C.3       1 MOL        -0.0795
      7 C7          5.1429   -4.1890    2.1836 C.3       1 MOL        -0.0924
      8 H1          0.5329    1.2217   -2.4899 H         1 MOL         0.0322
      9 H2          2.2982    1.3363   -2.3991 H         1 MOL         0.0322
     10 H3          1.3012    1.7264   -0.9823 H         1 MOL         0.0322
     11 H4          1.5298   -1.0269   -2.3059 H         1 MOL         0.0380
     12 H5          0.5174   -0.6704   -0.9110 H         1 MOL         0.0380
     13 H6          3.5645   -0.4730   -1.0338 H         1 MOL         0.0393
     14 H7          2.6085   -0.0754    0.3900 H         1 MOL         0.0393
     15 H8          1.7748   -2.4563    0.4695 H         1 MOL         0.0390
     16 H9          2.7555   -2.8311   -0.9502 H         1 MOL         0.0390
     17 H10         3.8349   -1.8117    1.7324 H         1 MOL         0.0393
     18 H11         4.8212   -2.1934    0.3194 H         1 MOL         0.0393
     19 H12         3.0293   -4.1863    1.8106 H         1 MOL         0.0380
     20 H13         4.0151   -4.5672    0.3971 H         1 MOL         0.0380
     21 H14         5.1747   -5.2397    2.4889 H         1 MOL         0.0322
     22 H15         6.0824   -3.9500    1.6752 H         1 MOL         0.0322
     23 H16         5.0798   -3.5745    3.0871 H         1 MOL         0.0322
@<TRIPOS>BOND
     1    1    2 1
     2    2    3 1
     3    3    4 1
     4    4    5 1
     5    5    6 1
     6    6    7 1
     7    1    8 1
     8    1    9 1
     9    1   10 1
    10    2   11 1
    11    2   12 1
    12    3   13 1
    13    3   14 1
    14    4   15 1
    15    4   16 1
    16    5   17 1
    17    5   18 1
    18    6   19 1
    19    6   20 1
    20    7   21 1
    21    7   22 1
    22    7   23 1
