@<TRIPOS>MOLECULE
m-xylene
   18    18     0     0     0
SMALL
USER_CHARGES

@<TRIPOS>ATOM
      1 C1          1.9315   -1.0128   -1.6028 C.3       1 MOL        -0.0536
      2 C2          1.8851   -1.0363   -0.1124 C.ar      1 MOL        -0.0739
      3 C3          2.9210   -1.6309    0.6081 C.ar      1 MOL        -0.1352
      4 C4          2.8783   -1.6520    2.0022 C.ar      1 MOL        -0.1237
      5 C5          1.7997   -1.0786    2.6757 C.ar      1 MOL        -0.1352
      6 C6          0.7638   -0.4841    1.9551 C.ar      1 MOL        -0.0739
      7 C7          0.8066   -0.4630    0.5610 C.ar      1 MOL        -0.1309
      8 C8         -0.3888    0.1291    2.6756 C.3       1 MOL        -0.0536
      9 H1          2.4400   -0.1071   -1.9473 H         1 MOL         0.0435
     10 H2          2.4640   -1.8872   -1.9912 H         1 MOL         0.0435
     11 H3          0.9216   -1.0345   -2.0257 H         1 MOL         0.0435
     12 H4          3.7662   -2.0782    0.0922 H         1 MOL         0.1297
     13 H5          3.6860   -2.1124    2.5636 H         1 MOL         0.1296
     14 H6          1.7753   -1.0993    3.7621 H         1 MOL         0.1297
     15 H7         -0.0013   -0.0004   -0.0011 H         1 MOL         0.1300
     16 H8         -0.1875    1.1861    2.8888 H         1 MOL         0.0435
     17 H9         -1.3103    0.0633    2.0827 H         1 MOL         0.0435
     18 H10        -0.5849   -0.3860    3.6252 H         1 MOL         0.0435
@<TRIPOS>BOND
     1    1    2 1
     2    2    7 ar
     3    2    3 ar
     4    3    4 ar
     5    4    5 ar
     6    5    6 ar
     7    6    7 ar
     8    6    8 1
     9    1    9 1
    10    1   10 1
    11    1   11 1
    12    3   12 1
    13    4   13 1
    14    5   14 1
    15    7   15 1
    16    8   16 1
    17    8   17 1
    18    8   18 1
