@<TRIPOS>MOLECULE
dibenzo-p-dioxin
   22    24     0     0     0
SMALL
USER_CHARGES

@<TRIPOS>ATOM
      1 C1         -1.8584    0.7400    0.8000 C.ar      1 MOL        -0.1279
      2 C2         -1.0039   -0.2568    0.3257 C.ar      1 MOL        -0.1277
      3 C3         -1.4367   -1.5819    0.2693 C.ar      1 MOL        -0.1166
      4 C4         -2.7266   -1.9051    0.6889 C.ar      1 MOL         0.0629
      5 C5         -3.5799   -0.9097    1.1626 C.ar      1 MOL         0.0629
      6 C6         -3.1487    0.4152    1.2196 C.ar      1 MOL        -0.1166
      7 O1         -4.8561   -1.1828    1.5855 O.3       1 MOL        -0.2251
      8 C7         -5.2389   -2.4982    1.5123 C.ar      1 MOL         0.0629
      9 C8         -6.5287   -2.8214    1.9320 C.ar      1 MOL        -0.1166
     10 C9         -6.9616   -4.1465    1.8755 C.ar      1 MOL        -0.1277
     11 C10        -6.1071   -5.1433    1.4010 C.ar      1 MOL        -0.1277
     12 C11        -4.8168   -4.8184    0.9815 C.ar      1 MOL        -0.1166
     13 C12        -4.3856   -3.4936    1.0385 C.ar      1 MOL         0.0629
     14 O2         -3.1093   -3.2205    0.6157 O.3       1 MOL        -0.2251
     15 H1         -1.5174    1.7703    0.8424 H         1 MOL         0.1392
     16 H2          0.0001   -0.0001    0.0005 H         1 MOL         0.1392
     17 H3         -0.7661   -2.3525   -0.1007 H         1 MOL         0.1548
     18 H4         -3.8080    1.1963    1.5874 H         1 MOL         0.1548
     19 H5         -7.1990   -2.0506    2.3025 H         1 MOL         0.1548
     20 H6         -7.9656   -4.4034    2.2014 H         1 MOL         0.1392
     21 H7         -6.4481   -6.1739    1.3584 H         1 MOL         0.1392
     22 H8         -4.1573   -5.5992    0.6131 H         1 MOL         0.1548
@<TRIPOS>BOND
     1    1    6 ar
     2    1    2 ar
     3    2    3 ar
     4    3    4 ar
     5    4   14 1
     6    4    5 ar
     7    5    6 ar
     8    5    7 1
     9    7    8 1
    10    8   13 ar
    11    8    9 ar
    12    9   10 ar
    13   10   11 ar
    14   11   12 ar
    15   12   13 ar
    16   13   14 1
    17    1   15 1
    18    2   16 1
    19    3   17 1
    20    6   18 1
    21    9   19 1
    22   10   20 1
    23   11   21 1
    24   12   22 1
