@<TRIPOS>MOLECULE
2,3-dimethylbutane
   20    19     0     0     0
SMALL
USER_CHARGES

@<TRIPOS>ATOM
      1 C1          0.5108   -0.7952    0.5544 C.3       1 MOL        -0.0892
      2 C2          1.2455   -0.2135    1.7653 C.3       1 MOL        -0.0619
      3 C3          0.2493    0.5315    2.6603 C.3       1 MOL        -0.0892
      4 C4          2.0681   -1.2569    2.5683 C.3       1 MOL        -0.0619
      5 C5          1.2321   -2.4040    3.1421 C.3       1 MOL        -0.0892
      6 C6          3.2220   -1.8286    1.7375 C.3       1 MOL        -0.0892
      7 H1          1.1901   -1.3367   -0.1113 H         1 MOL         0.0332
      8 H2         -0.2617   -1.5008    0.8796 H         1 MOL         0.0332
      9 H3          0.0108   -0.0142   -0.0254 H         1 MOL         0.0332
     10 H4          1.9519    0.5380    1.3867 H         1 MOL         0.0414
     11 H5          0.7599    0.9543    3.5325 H         1 MOL         0.0332
     12 H6         -0.2363    1.3572    2.1309 H         1 MOL         0.0332
     13 H7         -0.5284   -0.1455    3.0285 H         1 MOL         0.0332
     14 H8          2.5233   -0.7299    3.4181 H         1 MOL         0.0414
     15 H9          1.8516   -3.1131    3.6987 H         1 MOL         0.0332
     16 H10         0.4435   -2.0390    3.8077 H         1 MOL         0.0332
     17 H11         0.7466   -2.9635    2.3344 H         1 MOL         0.0332
     18 H12         3.8047   -2.5648    2.3001 H         1 MOL         0.0332
     19 H13         3.9068   -1.0295    1.4326 H         1 MOL         0.0332
     20 H14         2.8482   -2.3087    0.8272 H         1 MOL         0.0332
@<TRIPOS>BOND
     1    1    2 1
     2    2    3 1
     3    2    4 1
     4    4    5 1
     5    4    6 1
     6    1    7 1
     7    1    8 1
     8    1    9 1
     9    2   10 1
    10    3   11 1
    11    3   12 1
    12    3   13 1
    13    4   14 1
    14    5   15 1
    15    5   16 1
    16    5   17 1
    17    6   18 1
    18    6   19 1
    19    6   20 1
