@<TRIPOS>MOLECULE
3-nitroaniline
   16    16     0     0     0
SMALL
USER_CHARGES

@<TRIPOS>ATOM
      1 C1          1.8851   -1.0363   -0.1124 C.ar      1 MOL        -0.1008
      2 C2          2.9210   -1.6309    0.6081 C.ar      1 MOL        -0.1569
      3 C3          2.8783   -1.6520    2.0022 C.ar      1 MOL         0.1410
      4 C4          1.7997   -1.0786    2.6757 C.ar      1 MOL        -0.1412
      5 C5          0.7638   -0.4841    1.9551 C.ar      1 MOL        -0.1334
      6 C6          0.8066   -0.4630    0.5610 C.ar      1 MOL        -0.1134
      7 N1         -0.3343    0.1010    2.6397 N.pl3     1 MOL         0.3096
      8 O1         -1.2549    0.6304    1.9715 O.2       1 MOL        -0.2088
      9 O2         -0.3535    0.0726    3.8939 O.3       1 MOL        -0.2088
     10 N2          3.9253   -2.2539    2.7308 N.pl3     1 MOL        -0.8176
     11 H1          1.9185   -1.0198   -1.1978 H         1 MOL         0.1468
     12 H2          3.7566   -2.0753    0.0732 H         1 MOL         0.1417
     13 H3          1.7685   -1.0959    3.7634 H         1 MOL         0.1709
     14 H4          0.0055   -0.0027   -0.0124 H         1 MOL         0.1713
     15 H5          3.9061   -2.2209    3.7300 H         1 MOL         0.3999
     16 H6          4.7147   -2.6198    2.2380 H         1 MOL         0.3999
@<TRIPOS>BOND
     1    1    6 ar
     2    1    2 ar
     3    2    3 ar
     4    3    4 ar
     5    4    5 ar
     6    5    6 ar
     7    5    7 1
     8    7    8 2
     9    7    9 1
    10    3   10 1
    11    1   11 1
    12    2   12 1
    13    4   13 1
    14    6   14 1
    15   10   15 1
    16   10   16 1
