@<TRIPOS>MOLECULE
nonan-5-one
   28    27     0     0     0
SMALL
USER_CHARGES

@<TRIPOS>ATOM
      1 C1         -1.6202    1.5627    4.2479 C.3       1 MOL        -0.0917
      2 C2         -1.7871    1.6210    2.7378 C.3       1 MOL        -0.0792
      3 C3         -0.9426    0.5563    2.0394 C.3       1 MOL        -0.0758
      4 C4         -1.1133    0.6185    0.5232 C.3       1 MOL        -0.1815
      5 C5         -0.2845   -0.4302   -0.2024 C.2       1 MOL         0.5633
      6 O1          0.4352   -1.2271    0.3974 O.2       1 MOL        -0.5279
      7 C6         -0.4341   -0.4499   -1.7169 C.3       1 MOL        -0.1815
      8 C7          0.4139   -1.5162   -2.4084 C.3       1 MOL        -0.0758
      9 C8          0.2379   -1.5063   -3.9289 C.3       1 MOL        -0.0792
     10 C9          1.0912   -2.5754   -4.5931 C.3       1 MOL        -0.0917
     11 H1         -2.2330    2.3328    4.7270 H         1 MOL         0.0347
     12 H2         -0.5772    1.7317    4.5343 H         1 MOL         0.0347
     13 H3         -1.9310    0.5889    4.6395 H         1 MOL         0.0347
     14 H4         -1.4987    2.6172    2.3825 H         1 MOL         0.0357
     15 H5         -2.8452    1.4808    2.4874 H         1 MOL         0.0357
     16 H6          0.1146    0.6950    2.2978 H         1 MOL         0.0543
     17 H7         -1.2279   -0.4388    2.4028 H         1 MOL         0.0543
     18 H8         -0.8063    1.6035    0.1546 H         1 MOL         0.0631
     19 H9         -2.1644    0.4583    0.2587 H         1 MOL         0.0631
     20 H10        -0.1810    0.5417   -2.1079 H         1 MOL         0.0631
     21 H11        -1.4924   -0.6403   -1.9292 H         1 MOL         0.0631
     22 H12         0.1143   -2.4992   -2.0245 H         1 MOL         0.0543
     23 H13         1.4725   -1.3847   -2.1543 H         1 MOL         0.0543
     24 H14        -0.8146   -1.6799   -4.1818 H         1 MOL         0.0357
     25 H15         0.5111   -0.5280   -4.3393 H         1 MOL         0.0357
     26 H16         0.9512   -2.5517   -5.6784 H         1 MOL         0.0347
     27 H17         2.1536   -2.4151   -4.3838 H         1 MOL         0.0347
     28 H18         0.8171   -3.5737   -4.2373 H         1 MOL         0.0347
@<TRIPOS>BOND
     1    1    2 1
     2    2    3 1
     3    3    4 1
     4    4    5 1
     5    5    6 2
     6    5    7 1
     7    7    8 1
     8    8    9 1
     9    9   10 1
    10    1   11 1
    11    1   12 1
    12    1   13 1
    13    2   14 1
    14    2   15 1
    15    3   16 1
    16    3   17 1
    17    4   18 1
    18    4   19 1
    19    7   20 1
    20    7   21 1
    21    8   22 1
    22    8   23 1
    23    9   24 1
    24    9   25 1
    25   10   26 1
    26   10   27 1
    27   10   28 1
