@<TRIPOS>MOLECULE
azetidine
   11    11     0     0     0
SMALL
USER_CHARGES

@<TRIPOS>ATOM
      1 C1          0.8686   -0.4836   -0.4587 C.3       1 MOL        -0.1157
      2 C2          1.7750    0.4761   -1.2453 C.3       1 MOL         0.1247
      3 N1          1.0597    0.1020   -2.5174 N.3       1 MOL        -0.7883
      4 C3          0.5736   -1.1399   -1.8165 C.3       1 MOL         0.1247
      5 H1         -0.0018    0.0031   -0.0048 H         1 MOL         0.0560
      6 H2          1.3626   -1.1136    0.2847 H         1 MOL         0.0560
      7 H3          1.6955    1.5328   -0.9753 H         1 MOL         0.0495
      8 H4          2.8324    0.1886   -1.2546 H         1 MOL         0.0495
      9 H5          1.7031   -0.1080   -3.2815 H         1 MOL         0.3446
     10 H6         -0.4746   -1.3867   -2.0074 H         1 MOL         0.0495
     11 H7          1.1913   -2.0181   -2.0345 H         1 MOL         0.0495
@<TRIPOS>BOND
     1    1    4 1
     2    1    2 1
     3    2    3 1
     4    3    4 1
     5    1    5 1
     6    1    6 1
     7    2    7 1
     8    2    8 1
     9    3    9 1
    10    4   10 1
    11    4   11 1
