@<TRIPOS>MOLECULE
benzamide
   16    16     0     0     0
SMALL
USER_CHARGES

@<TRIPOS>ATOM
      1 C1          1.8851   -1.0363   -0.1124 C.ar      1 MOL        -0.1034
      2 C2          2.9210   -1.6309    0.6081 C.ar      1 MOL        -0.1431
      3 C3          2.8783   -1.6520    2.0022 C.ar      1 MOL        -0.0873
      4 C4          1.7997   -1.0786    2.6757 C.ar      1 MOL        -0.1393
      5 C5          0.7638   -0.4841    1.9551 C.ar      1 MOL        -0.0873
      6 C6          0.8066   -0.4630    0.5610 C.ar      1 MOL        -0.1431
      7 C7          1.7551   -1.1006    4.1291 C.2       1 MOL         0.6722
      8 O1          0.7986   -0.6120    4.7558 O.2       1 MOL        -0.6171
      9 N1          2.8135   -1.7059    4.8004 N.am      1 MOL        -0.6741
     10 H1          1.9184   -1.0198   -1.1978 H         1 MOL         0.1390
     11 H2          3.7607   -2.0775    0.0838 H         1 MOL         0.1346
     12 H3          3.6911   -2.1179    2.5534 H         1 MOL         0.1450
     13 H4         -0.0814   -0.0344    2.4697 H         1 MOL         0.1450
     14 H5          0.0002    0.0000   -0.0002 H         1 MOL         0.1346
     15 H6          3.5921   -2.1393    4.3160 H         1 MOL         0.3121
     16 H7          2.8323   -1.7676    5.8133 H         1 MOL         0.3121
@<TRIPOS>BOND
     1    1    6 ar
     2    1    2 ar
     3    2    3 ar
     4    3    4 ar
     5    4    5 ar
     6    5    6 ar
     7    4    7 1
     8    7    8 2
     9    7    9 am
    10    1   10 1
    11    2   11 1
    12    3   12 1
    13    5   13 1
    14    6   14 1
    15    9   15 1
    16    9   16 1
