@<TRIPOS>MOLECULE
hexylbenzene
   30    30     0     0     0
SMALL
USER_CHARGES

@<TRIPOS>ATOM
      1 C1          0.5655   -0.3057   -0.8833 C.3       1 MOL        -0.0923
      2 C2         -0.1252    0.1508   -2.1585 C.3       1 MOL        -0.0798
      3 C3         -1.5244   -0.4515   -2.2838 C.3       1 MOL        -0.0775
      4 C4         -2.2159    0.0100   -3.5677 C.3       1 MOL        -0.0825
      5 C5         -3.6163   -0.5929   -3.6930 C.3       1 MOL        -0.0719
      6 C6         -4.3060   -0.1298   -4.9781 C.3       1 MOL        -0.0375
      7 C7         -5.6783   -0.7132   -5.1127 C.ar      1 MOL        -0.0765
      8 C8         -5.8563   -1.9333   -5.7651 C.ar      1 MOL        -0.1283
      9 C9         -7.1347   -2.4769   -5.8908 C.ar      1 MOL        -0.1285
     10 C10        -8.2351   -1.8004   -5.3643 C.ar      1 MOL        -0.1338
     11 C11        -8.0570   -0.5804   -4.7120 C.ar      1 MOL        -0.1285
     12 C12        -6.7786   -0.0367   -4.5863 C.ar      1 MOL        -0.1283
     13 H1          1.5641    0.1367   -0.8139 H         1 MOL         0.0326
     14 H2         -0.0030   -0.0014    0.0013 H         1 MOL         0.0326
     15 H3          0.6744   -1.3948   -0.8643 H         1 MOL         0.0326
     16 H4          0.4845   -0.1405   -3.0218 H         1 MOL         0.0384
     17 H5         -0.1892    1.2452   -2.1608 H         1 MOL         0.0384
     18 H6         -1.4550   -1.5462   -2.2767 H         1 MOL         0.0381
     19 H7         -2.1287   -0.1604   -1.4160 H         1 MOL         0.0381
     20 H8         -1.6117   -0.2812   -4.4356 H         1 MOL         0.0429
     21 H9         -2.2855    1.1045   -3.5741 H         1 MOL         0.0429
     22 H10        -4.2186   -0.3058   -2.8216 H         1 MOL         0.0412
     23 H11        -3.5464   -1.6881   -3.6808 H         1 MOL         0.0412
     24 H12        -4.3769    0.9652   -4.9950 H         1 MOL         0.0472
     25 H13        -3.7066   -0.4146   -5.8520 H         1 MOL         0.0472
     26 H14        -5.0046   -2.4668   -6.1786 H         1 MOL         0.1311
     27 H15        -7.2732   -3.4270   -6.3985 H         1 MOL         0.1299
     28 H16        -9.2306   -2.2236   -5.4620 H         1 MOL         0.1299
     29 H17        -8.9138   -0.0534   -4.3026 H         1 MOL         0.1299
     30 H18        -6.6499    0.9142   -4.0761 H         1 MOL         0.1311
@<TRIPOS>BOND
     1    1    2 1
     2    2    3 1
     3    3    4 1
     4    4    5 1
     5    5    6 1
     6    6    7 1
     7    7   12 ar
     8    7    8 ar
     9    8    9 ar
    10    9   10 ar
    11   10   11 ar
    12   11   12 ar
    13    1   13 1
    14    1   14 1
    15    1   15 1
    16    2   16 1
    17    2   17 1
    18    3   18 1
    19    3   19 1
    20    4   20 1
    21    4   21 1
    22    5   22 1
    23    5   23 1
    24    6   24 1
    25    6   25 1
    26    8   26 1
    27    9   27 1
    28   10   28 1
    29   11   29 1
    30   12   30 1
