@<TRIPOS>MOLECULE
propyl propanoate
   20    19     0     0     0
SMALL
USER_CHARGES

@<TRIPOS>ATOM
      1 C1         -4.5363    3.9850    4.4143 C.3       1 MOL        -0.0897
      2 C2         -3.4077    3.2177    3.7493 C.3       1 MOL        -0.1077
      3 C3         -3.0835    1.9309    4.4926 C.3       1 MOL         0.1489
      4 O1         -2.0159    1.2612    3.8143 O.3       1 MOL        -0.4659
      5 C4         -1.6136    0.0807    4.3720 C.2       1 MOL         0.6442
      6 O2         -2.0821   -0.4341    5.3780 O.2       1 MOL        -0.5103
      7 C5         -0.4896   -0.4939    3.5422 C.3       1 MOL        -0.1391
      8 C6          0.0156   -1.8133    4.0995 C.3       1 MOL        -0.0952
      9 H1         -4.7579    4.9077    3.8685 H         1 MOL         0.0363
     10 H2         -5.4465    3.3775    4.4375 H         1 MOL         0.0363
     11 H3         -4.2776    4.2487    5.4446 H         1 MOL         0.0363
     12 H4         -2.5113    3.8470    3.6949 H         1 MOL         0.0590
     13 H5         -3.6759    2.9857    2.7117 H         1 MOL         0.0590
     14 H6         -2.7664    2.1416    5.5190 H         1 MOL         0.0455
     15 H7         -3.9520    1.2650    4.5180 H         1 MOL         0.0455
     16 H8         -0.8558   -0.6480    2.5217 H         1 MOL         0.0795
     17 H9          0.3324    0.2296    3.5234 H         1 MOL         0.0795
     18 H10         0.8291   -2.2140    3.4856 H         1 MOL         0.0460
     19 H11         0.3904   -1.6782    5.1187 H         1 MOL         0.0460
     20 H12        -0.7838   -2.5612    4.1249 H         1 MOL         0.0460
@<TRIPOS>BOND
     1    1    2 1
     2    2    3 1
     3    3    4 1
     4    4    5 1
     5    5    6 2
     6    5    7 1
     7    7    8 1
     8    1    9 1
     9    1   10 1
    10    1   11 1
    11    2   12 1
    12    2   13 1
    13    3   14 1
    14    3   15 1
    15    7   16 1
    16    7   17 1
    17    8   18 1
    18    8   19 1
    19    8   20 1
