@<TRIPOS>MOLECULE
1-bromo-4-methyl-benzene
   15    15     0     0     0
SMALL
USER_CHARGES

@<TRIPOS>ATOM
      1 C1          1.9306   -1.0137   -1.6031 C.3       1 MOL        -0.0577
      2 C2          1.8851   -1.0363   -0.1124 C.ar      1 MOL        -0.0619
      3 C3          2.9210   -1.6309    0.6081 C.ar      1 MOL        -0.1323
      4 C4          2.8783   -1.6520    2.0022 C.ar      1 MOL        -0.0996
      5 C5          1.7997   -1.0786    2.6757 C.ar      1 MOL        -0.0318
      6 C6          0.7638   -0.4841    1.9551 C.ar      1 MOL        -0.0996
      7 C7          0.8066   -0.4630    0.5610 C.ar      1 MOL        -0.1323
      8 Br1         1.7401   -1.1091    4.5645 Br        1 MOL        -0.0918
      9 H1          2.4384   -0.1080   -1.9485 H         1 MOL         0.0476
     10 H2          2.4633   -1.8882   -1.9913 H         1 MOL         0.0476
     11 H3          0.9204   -1.0363   -2.0253 H         1 MOL         0.0476
     12 H4          3.7659   -2.0792    0.0922 H         1 MOL         0.1368
     13 H5          3.6936   -2.1192    2.5490 H         1 MOL         0.1454
     14 H6         -0.0841   -0.0328    2.4641 H         1 MOL         0.1454
     15 H7         -0.0043    0.0032    0.0076 H         1 MOL         0.1368
@<TRIPOS>BOND
     1    1    2 1
     2    2    7 ar
     3    2    3 ar
     4    3    4 ar
     5    4    5 ar
     6    5    6 ar
     7    6    7 ar
     8    5    8 1
     9    1    9 1
    10    1   10 1
    11    1   11 1
    12    3   12 1
    13    4   13 1
    14    6   14 1
    15    7   15 1
