@<TRIPOS>MOLECULE
2-nitrooxyethyl nitrate
   14    13     0     0     0
SMALL
USER_CHARGES

@<TRIPOS>ATOM
      1 C1         -2.1461   -0.1936   -0.1209 C.3       1 MOL         0.1247
      2 C2         -0.8936    0.4506    0.4416 C.3       1 MOL         0.1248
      3 O1         -0.8122    1.7920   -0.0246 O.3       1 MOL        -0.3429
      4 N1          0.3337    2.4887    0.4486 N.pl3     1 MOL         0.3787
      5 O2          1.1094    1.8779    1.1876 O.2       1 MOL        -0.1697
      6 O3          0.3915    3.6483    0.0377 O.3       1 MOL        -0.1697
      7 O4         -3.2827    0.5410    0.3172 O.3       1 MOL        -0.3429
      8 N2         -4.5157    0.0156   -0.1583 N.pl3     1 MOL         0.3787
      9 O5         -4.4715   -0.9866   -0.8754 O.2       1 MOL        -0.1697
     10 O6         -5.4909    0.6610    0.2283 O.3       1 MOL        -0.1697
     11 H1         -2.2509   -1.2251    0.2298 H         1 MOL         0.0894
     12 H2         -2.1275   -0.1762   -1.2145 H         1 MOL         0.0894
     13 H3          0.0049   -0.0799    0.1119 H         1 MOL         0.0894
     14 H4         -0.9307    0.4694    1.5347 H         1 MOL         0.0894
@<TRIPOS>BOND
     1    1    2 1
     2    2    3 1
     3    3    4 1
     4    4    5 2
     5    4    6 1
     6    1    7 1
     7    7    8 1
     8    8    9 2
     9    8   10 1
    10    1   11 1
    11    1   12 1
    12    2   13 1
    13    2   14 1
