@<TRIPOS>MOLECULE
methyl 2,2,2-trifluoroacetate
   11    10     0     0     0
SMALL
USER_CHARGES

@<TRIPOS>ATOM
      1 C1         -0.4486   -0.9868    0.1664 C.3       1 MOL         0.1219
      2 O1         -0.8571   -1.1186    1.5318 O.3       1 MOL        -0.4034
      3 C2          0.1400   -1.0129    2.4552 C.2       1 MOL         0.5901
      4 O2          1.3259   -0.8196    2.2247 O.2       1 MOL        -0.4679
      5 C3         -0.4290   -1.1781    3.8267 C.3       1 MOL         0.6057
      6 F1         -1.7694   -1.3875    3.8018 F         1 MOL        -0.2121
      7 F2          0.1220   -2.2316    4.4808 F         1 MOL        -0.2121
      8 F3         -0.2161   -0.0810    4.5963 F         1 MOL        -0.2121
      9 H1         -1.3191   -1.0869   -0.4864 H         1 MOL         0.0633
     10 H2          0.2885   -1.7582   -0.0705 H         1 MOL         0.0633
     11 H3         -0.0000   -0.0009    0.0232 H         1 MOL         0.0633
@<TRIPOS>BOND
     1    1    2 1
     2    2    3 1
     3    3    4 2
     4    3    5 1
     5    5    6 1
     6    5    7 1
     7    5    8 1
     8    1    9 1
     9    1   10 1
    10    1   11 1
