@<TRIPOS>MOLECULE
4-chloroaniline
   14    14     0     0     0
SMALL
USER_CHARGES

@<TRIPOS>ATOM
      1 C1          1.8851   -1.0363   -0.1124 C.ar      1 MOL        -0.1879
      2 C2          2.9210   -1.6309    0.6081 C.ar      1 MOL        -0.0839
      3 C3          2.8783   -1.6520    2.0022 C.ar      1 MOL        -0.0292
      4 C4          1.7997   -1.0786    2.6757 C.ar      1 MOL        -0.0839
      5 C5          0.7638   -0.4841    1.9551 C.ar      1 MOL        -0.1879
      6 C6          0.8066   -0.4630    0.5610 C.ar      1 MOL         0.1482
      7 N1         -0.2404    0.1383   -0.1680 N.pl3     1 MOL        -0.8247
      8 Cl1         4.1553   -2.3872    2.8912 Cl        1 MOL        -0.1013
      9 H1          1.9289   -1.0255   -1.1984 H         1 MOL         0.1356
     10 H2          3.7551   -2.0748    0.0708 H         1 MOL         0.1447
     11 H3          1.7532   -1.0878    3.7616 H         1 MOL         0.1447
     12 H4         -0.0724   -0.0404    2.4896 H         1 MOL         0.1356
     13 H5         -1.0303    0.5040    0.3242 H         1 MOL         0.3950
     14 H6         -0.2207    0.1050   -1.1672 H         1 MOL         0.3950
@<TRIPOS>BOND
     1    1    6 ar
     2    1    2 ar
     3    2    3 ar
     4    3    4 ar
     5    4    5 ar
     6    5    6 ar
     7    6    7 1
     8    3    8 1
     9    1    9 1
    10    2   10 1
    11    4   11 1
    12    5   12 1
    13    7   13 1
    14    7   14 1
