@<TRIPOS>MOLECULE
(1R,2S,3S,4R,5R,6S,9R,10S)-7,8,9,10,11,11-hexachloro-12-oxapentacyclo[BLAH.BLAH.BLAH.BLAH.BLAH.BLAH]tridec-7-ene
   27    31     0     0     0
SMALL
USER_CHARGES

@<TRIPOS>ATOM
      1 C1          2.5074   -0.0558   -0.4071 C.3       1 MOL        -0.1105
      2 C2          1.9588   -0.7541    0.8416 C.3       1 MOL        -0.0481
      3 H1          2.2446   -1.7987    0.9709 H         1 MOL         0.0967
      4 C3          0.4280   -0.4691    0.8374 C.3       1 MOL        -0.0721
      5 H2          0.1173   -0.4153    1.8935 H         1 MOL         0.0765
      6 C4          0.3565    0.9714    0.1874 C.3       1 MOL        -0.0721
      7 H3          0.0097    1.6997    0.9383 H         1 MOL         0.0765
      8 C5          1.8572    1.2910   -0.0761 C.3       1 MOL        -0.0481
      9 H4          2.0512    2.1018   -0.7793 H         1 MOL         0.0967
     10 C6          2.4477    1.5456    1.3280 C.3       1 MOL         0.0426
     11 H5          2.0744    2.3849    1.8905 H         1 MOL         0.1142
     12 C7          2.5170    0.1727    1.9438 C.3       1 MOL         0.0426
     13 H6          2.1948    0.0054    2.9579 H         1 MOL         0.1142
     14 O1          3.6961    0.9342    1.6668 O.3       1 MOL        -0.3777
     15 C8         -0.7894    0.8015   -0.8699 C.3       1 MOL         0.0924
     16 C9         -2.0206    0.6555    0.0326 C.2       1 MOL        -0.0417
     17 C10        -1.9611   -0.5674    0.5876 C.2       1 MOL        -0.0417
     18 C11        -0.6907   -1.2424    0.0566 C.3       1 MOL         0.0924
     19 C12        -0.7767   -0.6680   -1.3891 C.3       1 MOL         0.1435
     20 Cl1        -2.3239   -1.1462   -2.2794 Cl        1 MOL        -0.0932
     21 Cl2         0.4460   -1.1471   -2.5700 Cl        1 MOL        -0.0932
     22 Cl3        -0.6161   -2.9804    0.1861 Cl        1 MOL        -0.0734
     23 Cl4        -3.0130   -1.2588    1.7187 Cl        1 MOL        -0.0038
     24 Cl5        -3.1651    1.8736    0.2973 Cl        1 MOL        -0.0038
     25 Cl6        -0.8582    2.0439   -2.0923 Cl        1 MOL        -0.0734
     26 H7          2.2478   -0.4887   -1.3488 H         1 MOL         0.0823
     27 H8          3.6038   -0.0078   -0.4200 H         1 MOL         0.0823
@<TRIPOS>BOND
     1    1    8 1
     2    1    2 1
     3    2    3 1
     4    2   12 1
     5    2    4 1
     6    4    5 1
     7    4   18 1
     8    4    6 1
     9    6    7 1
    10    6    8 1
    11    8    9 1
    12    8   10 1
    13   10   11 1
    14   10   14 1
    15   10   12 1
    16   12   13 1
    17   12   14 1
    18    6   15 1
    19   15   19 1
    20   15   16 1
    21   16   17 2
    22   17   18 1
    23   18   19 1
    24   19   20 1
    25   19   21 1
    26   18   22 1
    27   17   23 1
    28   16   24 1
    29   15   25 1
    30    1   26 1
    31    1   27 1
