@<TRIPOS>MOLECULE
2,3-dimethylphenol
   19    19     0     0     0
SMALL
USER_CHARGES

@<TRIPOS>ATOM
      1 C1          1.9548   -1.0271   -1.6044 C.3       1 MOL        -0.0555
      2 C2          1.8851   -1.0363   -0.1124 C.ar      1 MOL        -0.0459
      3 C3          2.9210   -1.6309    0.6081 C.ar      1 MOL        -0.1619
      4 C4          2.8783   -1.6520    2.0022 C.ar      1 MOL        -0.0937
      5 C5          1.7997   -1.0786    2.6757 C.ar      1 MOL        -0.2146
      6 C6          0.7638   -0.4841    1.9551 C.ar      1 MOL         0.1218
      7 C7          0.8066   -0.4630    0.5610 C.ar      1 MOL        -0.0985
      8 C8         -0.3073    0.1742   -0.2066 C.3       1 MOL        -0.0458
      9 O1         -0.2820    0.0696    2.6307 O.3       1 MOL        -0.5004
     10 H1          2.4686   -0.1248   -1.9497 H         1 MOL         0.0462
     11 H2          2.4932   -1.9053   -1.9761 H         1 MOL         0.0462
     12 H3          0.9516   -1.0531   -2.0428 H         1 MOL         0.0462
     13 H4          3.7659   -2.0799    0.0927 H         1 MOL         0.1323
     14 H5          3.6855   -2.1134    2.5635 H         1 MOL         0.1315
     15 H6          1.7722   -1.0991    3.7619 H         1 MOL         0.1317
     16 H7         -0.0936    1.2359   -0.3718 H         1 MOL         0.0477
     17 H8         -0.4445   -0.3119   -1.1796 H         1 MOL         0.0477
     18 H9         -1.2582    0.0871    0.3324 H         1 MOL         0.0477
     19 H10        -0.1544   -0.0323    3.5868 H         1 MOL         0.4172
@<TRIPOS>BOND
     1    1    2 1
     2    2    7 ar
     3    2    3 ar
     4    3    4 ar
     5    4    5 ar
     6    5    6 ar
     7    6    7 ar
     8    7    8 1
     9    6    9 1
    10    1   10 1
    11    1   11 1
    12    1   12 1
    13    3   13 1
    14    4   14 1
    15    5   15 1
    16    8   16 1
    17    8   17 1
    18    8   18 1
    19    9   19 1
