@<TRIPOS>MOLECULE
1,1,1-trichloroethane
    8     7     0     0     0
SMALL
USER_CHARGES

@<TRIPOS>ATOM
      1 C1          1.0245    0.2811   -0.2703 C.3       1 MOL        -0.1120
      2 C2          1.2871    1.7565    0.0012 C.3       1 MOL         0.2639
      3 Cl1         0.1596    2.7554   -0.9573 Cl        1 MOL        -0.1236
      4 Cl2         1.0484    2.1022    1.7366 Cl        1 MOL        -0.1236
      5 Cl3         2.9647    2.1642   -0.4534 Cl        1 MOL        -0.1236
      6 H1          1.7029   -0.3597    0.3053 H         1 MOL         0.0730
      7 H2         -0.0001    0.0000   -0.0002 H         1 MOL         0.0730
      8 H3          1.1631    0.0375   -1.3305 H         1 MOL         0.0730
@<TRIPOS>BOND
     1    1    2 1
     2    2    3 1
     3    2    4 1
     4    2    5 1
     5    1    6 1
     6    1    7 1
     7    1    8 1
