@<TRIPOS>MOLECULE
pent-1-yne
   13    12     0     0     0
SMALL
USER_CHARGES

@<TRIPOS>ATOM
      1 C1         -1.1353    1.3803   -0.7537 C.3       1 MOL        -0.0939
      2 C2          0.1020    0.6784   -0.2171 C.3       1 MOL        -0.0776
      3 C3         -0.2097   -0.7519    0.2191 C.3       1 MOL        -0.0030
      4 C4          0.9911   -1.4222    0.7361 C.1       1 MOL        -0.1383
      5 C5          1.9705   -1.9727    1.1593 C.1       1 MOL        -0.1629
      6 H1         -0.9023    2.4040   -1.0636 H         1 MOL         0.0348
      7 H2         -1.5283    0.8434   -1.6228 H         1 MOL         0.0348
      8 H3         -1.9233    1.4213    0.0050 H         1 MOL         0.0348
      9 H4          0.8782    0.6746   -0.9923 H         1 MOL         0.0459
     10 H5          0.5026    1.2509    0.6287 H         1 MOL         0.0459
     11 H6         -0.6089   -1.3205   -0.6289 H         1 MOL         0.0582
     12 H7         -0.9856   -0.7433    0.9937 H         1 MOL         0.0582
     13 H8          2.8393   -2.4606    1.5347 H         1 MOL         0.1632
@<TRIPOS>BOND
     1    1    2 1
     2    2    3 1
     3    3    4 1
     4    4    5 3
     5    1    6 1
     6    1    7 1
     7    1    8 1
     8    2    9 1
     9    2   10 1
    10    3   11 1
    11    3   12 1
    12    5   13 1
