@<TRIPOS>MOLECULE
pentan-1-amine
   19    18     0     0     0
SMALL
USER_CHARGES

@<TRIPOS>ATOM
      1 C1         -0.0033   -0.6405    0.8880 C.3       1 MOL        -0.0924
      2 C2          1.2685   -0.4528    1.6997 C.3       1 MOL        -0.0802
      3 C3          2.5112   -0.8072    0.8834 C.3       1 MOL        -0.0749
      4 C4          3.7878   -0.6173    1.7026 C.3       1 MOL        -0.1223
      5 C5          5.0269   -0.9707    0.8888 C.3       1 MOL         0.1518
      6 N1          6.2303   -0.7938    1.6547 N.3       1 MOL        -0.9069
      7 H1         -0.8794   -0.3814    1.4908 H         1 MOL         0.0334
      8 H2         -0.0004    0.0001    0.0003 H         1 MOL         0.0334
      9 H3         -0.1107   -1.6798    0.5618 H         1 MOL         0.0334
     10 H4          1.2193   -1.0824    2.5957 H         1 MOL         0.0378
     11 H5          1.3292    0.5884    2.0375 H         1 MOL         0.0378
     12 H6          2.5534   -0.1776   -0.0138 H         1 MOL         0.0408
     13 H7          2.4435   -1.8482    0.5444 H         1 MOL         0.0408
     14 H8          3.7485   -1.2431    2.6030 H         1 MOL         0.0377
     15 H9          3.8569    0.4224    2.0464 H         1 MOL         0.0377
     16 H10         5.1089   -0.3354    0.0013 H         1 MOL         0.0516
     17 H11         4.9957   -2.0161    0.5655 H         1 MOL         0.0516
     18 H12         6.5320   -1.5296    2.2739 H         1 MOL         0.3443
     19 H13         6.6406    0.1245    1.7210 H         1 MOL         0.3443
@<TRIPOS>BOND
     1    1    2 1
     2    2    3 1
     3    3    4 1
     4    4    5 1
     5    5    6 1
     6    1    7 1
     7    1    8 1
     8    1    9 1
     9    2   10 1
    10    2   11 1
    11    3   12 1
    12    3   13 1
    13    4   14 1
    14    4   15 1
    15    5   16 1
    16    5   17 1
    17    6   18 1
    18    6   19 1
