@<TRIPOS>MOLECULE
1,3,7-trimethylpurine-2,6-dione
   24    25     0     0     0
SMALL
USER_CHARGES

@<TRIPOS>ATOM
      1 C1          6.0482    2.9534   -1.7311 C.3       1 MOL         0.0143
      2 N1          4.9734    2.0838   -1.3171 N.pl3     1 MOL        -0.1483
      3 C2          5.1112    0.7768   -0.9264 C.2       1 MOL         0.4388
      4 N2          3.9557    0.2327   -0.6044 N.2       1 MOL        -0.6836
      5 C3          3.0449    1.2362   -0.7981 C.2       1 MOL         0.4845
      6 C4          3.6441    2.3853   -1.2367 C.2       1 MOL        -0.3457
      7 C5          2.9523    3.5995   -1.5265 C.2       1 MOL         0.7627
      8 O1          3.5083    4.6218   -1.9182 O.2       1 MOL        -0.6282
      9 N3          1.5557    3.4679   -1.3036 N.am      1 MOL        -0.4827
     10 C6          0.8629    2.2904   -0.8430 C.2       1 MOL         0.8120
     11 O2         -0.3623    2.2779   -0.6782 O.2       1 MOL        -0.6374
     12 N4          1.6743    1.1555   -0.5931 N.am      1 MOL        -0.4151
     13 C7          1.0741   -0.0872   -0.1242 C.3       1 MOL         0.0897
     14 C8          0.7176    4.6347   -1.5594 C.3       1 MOL         0.0802
     15 H1          6.4290    3.4651   -0.8433 H         1 MOL         0.0690
     16 H2          6.8384    2.3588   -2.1980 H         1 MOL         0.0690
     17 H3          5.6681    3.6773   -2.4574 H         1 MOL         0.0690
     18 H4          6.0713    0.2798   -0.8985 H         1 MOL         0.0709
     19 H5          0.8003   -0.6953   -0.9817 H         1 MOL         0.0632
     20 H6          0.1884    0.1422    0.4618 H         1 MOL         0.0632
     21 H7          1.7925   -0.6215    0.4913 H         1 MOL         0.0632
     22 H8          0.3879    4.6135   -2.5936 H         1 MOL         0.0637
     23 H9          1.2954    5.5354   -1.3745 H         1 MOL         0.0637
     24 H10        -0.1426    4.6072   -0.8971 H         1 MOL         0.0637
@<TRIPOS>BOND
     1    1    2 1
     2    2    6 1
     3    2    3 1
     4    3    4 2
     5    4    5 1
     6    5   12 1
     7    5    6 2
     8    6    7 1
     9    7    8 2
    10    7    9 am
    11    9   10 am
    12   10   11 2
    13   10   12 am
    14   12   13 1
    15    9   14 1
    16    1   15 1
    17    1   16 1
    18    1   17 1
    19    3   18 1
    20   13   19 1
    21   13   20 1
    22   13   21 1
    23   14   22 1
    24   14   23 1
    25   14   24 1
