@<TRIPOS>MOLECULE
1-bromopropane
   11    10     0     0     0
SMALL
USER_CHARGES

@<TRIPOS>ATOM
      1 C1         -0.8961    0.1363   -0.9997 C.3       1 MOL        -0.0954
      2 C2         -0.3515    0.1886    0.4185 C.3       1 MOL        -0.0831
      3 C3          1.0884   -0.2893    0.4719 C.3       1 MOL        -0.0070
      4 Br1         1.7434   -0.2055    2.3032 Br        1 MOL        -0.1807
      5 H1         -1.9338    0.4837   -1.0206 H         1 MOL         0.0377
      6 H2         -0.3105    0.7753   -1.6686 H         1 MOL         0.0377
      7 H3         -0.8721   -0.8856   -1.3916 H         1 MOL         0.0377
      8 H4         -0.9818   -0.4310    1.0679 H         1 MOL         0.0548
      9 H5         -0.4249    1.2167    0.7933 H         1 MOL         0.0548
     10 H6          1.7520    0.3411   -0.1264 H         1 MOL         0.0718
     11 H7          1.1869   -1.3303    0.1521 H         1 MOL         0.0718
@<TRIPOS>BOND
     1    1    2 1
     2    2    3 1
     3    3    4 1
     4    1    5 1
     5    1    6 1
     6    1    7 1
     7    2    8 1
     8    2    9 1
     9    3   10 1
    10    3   11 1
