@<TRIPOS>MOLECULE
N,N-dimethyl-4-nitro-benzamide
   24    24     0     0     0
SMALL
USER_CHARGES

@<TRIPOS>ATOM
      1 C1          1.0811   -0.1532   -0.2186 C.3       1 MOL         0.0797
      2 N1          1.5190    0.5270   -1.4294 N.am      1 MOL        -0.4758
      3 C2          1.0619   -0.0615   -2.6864 C.3       1 MOL         0.0797
      4 C3          2.3234    1.6663   -1.3232 C.2       1 MOL         0.6639
      5 O1          2.7119    2.1690   -0.2695 O.2       1 MOL        -0.5802
      6 C4          2.7669    2.3258   -2.5617 C.ar      1 MOL        -0.0854
      7 C5          3.9647    1.9427   -3.1651 C.ar      1 MOL        -0.1117
      8 C6          4.3854    2.5678   -4.3390 C.ar      1 MOL        -0.0706
      9 C7          3.6083    3.5760   -4.9093 C.ar      1 MOL        -0.1671
     10 C8          2.4105    3.9591   -4.3058 C.ar      1 MOL        -0.0706
     11 C9          1.9898    3.3340   -3.1320 C.ar      1 MOL        -0.1117
     12 N2          4.0367    4.2117   -6.1044 N.pl3     1 MOL         0.3119
     13 O2          3.3231    5.1163   -6.6016 O.2       1 MOL        -0.2041
     14 O3          5.1171    3.8515   -6.6313 O.3       1 MOL        -0.2041
     15 H1          1.8071   -0.9195    0.0653 H         1 MOL         0.0462
     16 H2          0.1114   -0.6308   -0.3831 H         1 MOL         0.0462
     17 H3          0.9847    0.5619    0.6028 H         1 MOL         0.0462
     18 H4          0.1130    0.3877   -2.9604 H         1 MOL         0.0462
     19 H5          0.9406   -1.1317   -2.5527 H         1 MOL         0.0462
     20 H6          1.8005    0.1329   -3.4574 H         1 MOL         0.0462
     21 H7          4.5777    1.1580   -2.7293 H         1 MOL         0.1589
     22 H8          5.3208    2.2592   -4.7996 H         1 MOL         0.1756
     23 H9          1.7952    4.7434   -4.7396 H         1 MOL         0.1756
     24 H10         1.0552    3.6411   -2.6693 H         1 MOL         0.1589
@<TRIPOS>BOND
     1    1    2 1
     2    2    3 1
     3    2    4 am
     4    4    5 2
     5    4    6 1
     6    6   11 ar
     7    6    7 ar
     8    7    8 ar
     9    8    9 ar
    10    9   10 ar
    11   10   11 ar
    12    9   12 1
    13   12   13 2
    14   12   14 1
    15    1   15 1
    16    1   16 1
    17    1   17 1
    18    3   18 1
    19    3   19 1
    20    3   20 1
    21    7   21 1
    22    8   22 1
    23   10   23 1
    24   11   24 1
