@<TRIPOS>MOLECULE
2-bromo-2-methyl-propane
   14    13     0     0     0
SMALL
USER_CHARGES

@<TRIPOS>ATOM
      1 C1          0.2695   -1.1203    0.8963 C.3       1 MOL        -0.0936
      2 C2          0.0165    0.2357    0.2412 C.3       1 MOL         0.0522
      3 C3         -1.3794    0.2973   -0.3751 C.3       1 MOL        -0.0936
      4 C4          1.0913    0.5552   -0.7955 C.3       1 MOL        -0.0936
      5 Br1         0.1126    1.6122    1.6510 Br        1 MOL        -0.2066
      6 H1          1.2701   -1.1722    1.3413 H         1 MOL         0.0484
      7 H2         -0.4550   -1.3241    1.6935 H         1 MOL         0.0484
      8 H3          0.1910   -1.9299    0.1621 H         1 MOL         0.0484
      9 H4         -1.5688    1.2681   -0.8476 H         1 MOL         0.0484
     10 H5         -1.5154   -0.4731   -1.1429 H         1 MOL         0.0484
     11 H6         -2.1508    0.1441    0.3880 H         1 MOL         0.0484
     12 H7          0.9163    1.5276   -1.2704 H         1 MOL         0.0484
     13 H8          1.1202   -0.1982   -1.5914 H         1 MOL         0.0484
     14 H9          2.0838    0.5861   -0.3324 H         1 MOL         0.0484
@<TRIPOS>BOND
     1    1    2 1
     2    2    3 1
     3    2    4 1
     4    2    5 1
     5    1    6 1
     6    1    7 1
     7    1    8 1
     8    3    9 1
     9    3   10 1
    10    3   11 1
    11    4   12 1
    12    4   13 1
    13    4   14 1
