@<TRIPOS>MOLECULE
[(1S)-1-methyl-3-nitrooxy-propyl] nitrate
   20    19     0     0     0
SMALL
USER_CHARGES

@<TRIPOS>ATOM
      1 C1          0.4755    0.8174   -0.5531 C.3       1 MOL        -0.1434
      2 C2          0.5699    0.4916   -2.0374 C.3       1 MOL         0.1537
      3 H1          1.0115    1.3445   -2.5644 H         1 MOL         0.0693
      4 C3          1.4087   -0.7635   -2.2846 C.3       1 MOL        -0.0873
      5 C4          1.5161   -1.1079   -3.7659 C.3       1 MOL         0.1244
      6 O1          2.3073   -2.2802   -3.9072 O.3       1 MOL        -0.3471
      7 N1          2.4739   -2.6944   -5.2579 N.pl3     1 MOL         0.3786
      8 O2          1.9327   -2.0159   -6.1340 O.2       1 MOL        -0.1744
      9 O3          3.1609   -3.7109   -5.3657 O.3       1 MOL        -0.1744
     10 O4         -0.7469    0.3091   -2.5505 O.3       1 MOL        -0.3653
     11 N2         -1.4196    1.5299   -2.8274 N.pl3     1 MOL         0.3692
     12 O5         -0.8155    2.5813   -2.6029 O.2       1 MOL        -0.1590
     13 O6         -2.5561    1.3575   -3.2697 O.3       1 MOL        -0.1590
     14 H2          0.0379   -0.0129    0.0092 H         1 MOL         0.0637
     15 H3         -0.1318    1.7136   -0.3845 H         1 MOL         0.0637
     16 H4          1.4697    1.0302   -0.1457 H         1 MOL         0.0637
     17 H5          2.4159   -0.6350   -1.8689 H         1 MOL         0.0871
     18 H6          0.9694   -1.6230   -1.7617 H         1 MOL         0.0871
     19 H7          0.5306   -1.3026   -4.2001 H         1 MOL         0.0747
     20 H8          1.9966   -0.2958   -4.3206 H         1 MOL         0.0747
@<TRIPOS>BOND
     1    1    2 1
     2    2    3 1
     3    2    4 1
     4    4    5 1
     5    5    6 1
     6    6    7 1
     7    7    8 2
     8    7    9 1
     9    2   10 1
    10   10   11 1
    11   11   12 2
    12   11   13 1
    13    1   14 1
    14    1   15 1
    15    1   16 1
    16    4   17 1
    17    4   18 1
    18    5   19 1
    19    5   20 1
