@<TRIPOS>MOLECULE
oct-1-ene
   24    23     0     0     0
SMALL
USER_CHARGES

@<TRIPOS>ATOM
      1 C1          1.5035    3.3310    0.9516 C.3       1 MOL        -0.0924
      2 C2          1.5685    1.8424    1.2544 C.3       1 MOL        -0.0810
      3 C3          0.3830    1.0941    0.6434 C.3       1 MOL        -0.0773
      4 C4          0.4546   -0.4030    0.9518 C.3       1 MOL        -0.0765
      5 C5         -0.7115   -1.2026    0.3620 C.3       1 MOL        -0.0728
      6 C6         -0.6387   -2.7000    0.6712 C.3       1 MOL        -0.0544
      7 C7         -1.8023   -3.4341    0.0714 C.2       1 MOL        -0.1595
      8 C8         -2.6917   -4.1348    0.7835 C.2       1 MOL        -0.2262
      9 H1          2.3554    3.8585    1.3925 H         1 MOL         0.0320
     10 H2          1.5078    3.5123   -0.1279 H         1 MOL         0.0320
     11 H3          0.5865    3.7623    1.3650 H         1 MOL         0.0320
     12 H4          2.5077    1.4361    0.8614 H         1 MOL         0.0382
     13 H5          1.5811    1.6973    2.3408 H         1 MOL         0.0382
     14 H6          0.3791    1.2549   -0.4405 H         1 MOL         0.0394
     15 H7         -0.5536    1.5066    1.0372 H         1 MOL         0.0394
     16 H8          1.4039   -0.8123    0.5850 H         1 MOL         0.0404
     17 H9          0.4496   -0.5451    2.0397 H         1 MOL         0.0404
     18 H10        -0.7503   -1.0453   -0.7235 H         1 MOL         0.0388
     19 H11        -1.6451   -0.7942    0.7705 H         1 MOL         0.0388
     20 H12         0.2802   -3.1298    0.2574 H         1 MOL         0.0462
     21 H13        -0.6028   -2.8512    1.7569 H         1 MOL         0.0462
     22 H14        -1.9138   -3.3958   -1.0091 H         1 MOL         0.1174
     23 H15        -3.5189   -4.6509    0.3090 H         1 MOL         0.1103
     24 H16        -2.6016   -4.2009    1.8622 H         1 MOL         0.1103
@<TRIPOS>BOND
     1    1    2 1
     2    2    3 1
     3    3    4 1
     4    4    5 1
     5    5    6 1
     6    6    7 1
     7    7    8 2
     8    1    9 1
     9    1   10 1
    10    1   11 1
    11    2   12 1
    12    2   13 1
    13    3   14 1
    14    3   15 1
    15    4   16 1
    16    4   17 1
    17    5   18 1
    18    5   19 1
    19    6   20 1
    20    6   21 1
    21    7   22 1
    22    8   23 1
    23    8   24 1
