@<TRIPOS>MOLECULE
3,3-dimethylbutan-2-one
   19    18     0     0     0
SMALL
USER_CHARGES

@<TRIPOS>ATOM
      1 C1         -0.6286   -0.3787   -0.5367 C.3       1 MOL        -0.1972
      2 C2         -1.9541   -0.8993   -0.0332 C.2       1 MOL         0.5692
      3 O1         -2.8917   -1.0445   -0.8212 O.2       1 MOL        -0.5343
      4 C3         -2.0979   -1.2116    1.4689 C.3       1 MOL        -0.1486
      5 C4         -1.8402    0.0713    2.2688 C.3       1 MOL        -0.0839
      6 C5         -1.1119   -2.3073    1.8941 C.3       1 MOL        -0.0839
      7 C6         -3.5277   -1.7025    1.7550 C.3       1 MOL        -0.0839
      8 H1         -0.6188    0.7133   -0.4690 H         1 MOL         0.0633
      9 H2          0.1902   -0.7629    0.0745 H         1 MOL         0.0633
     10 H3         -0.4898   -0.6627   -1.5822 H         1 MOL         0.0633
     11 H4         -1.9310   -0.0990    3.3470 H         1 MOL         0.0414
     12 H5         -0.8299    0.4546    2.0852 H         1 MOL         0.0414
     13 H6         -2.5538    0.8575    1.9981 H         1 MOL         0.0414
     14 H7         -1.2011   -2.5415    2.9605 H         1 MOL         0.0414
     15 H8         -0.0764   -1.9982    1.7112 H         1 MOL         0.0414
     16 H9         -1.2893   -3.2370    1.3416 H         1 MOL         0.0414
     17 H10        -3.6608   -1.9332    2.8184 H         1 MOL         0.0414
     18 H11        -3.7581   -2.6138    1.1909 H         1 MOL         0.0414
     19 H12        -4.2713   -0.9461    1.4797 H         1 MOL         0.0414
@<TRIPOS>BOND
     1    1    2 1
     2    2    3 2
     3    2    4 1
     4    4    5 1
     5    4    6 1
     6    4    7 1
     7    1    8 1
     8    1    9 1
     9    1   10 1
    10    5   11 1
    11    5   12 1
    12    5   13 1
    13    6   14 1
    14    6   15 1
    15    6   16 1
    16    7   17 1
    17    7   18 1
    18    7   19 1
