@<TRIPOS>MOLECULE
1-nitrobutane
   16    15     0     0     0
SMALL
USER_CHARGES

@<TRIPOS>ATOM
      1 C1         -0.4741    0.9660   -0.2045 C.3       1 MOL        -0.0953
      2 C2         -1.0731    1.5381    1.0709 C.3       1 MOL        -0.0772
      3 C3         -1.7896    2.8637    0.8059 C.3       1 MOL        -0.0953
      4 C4         -2.3977    3.4556    2.0694 C.3       1 MOL        -0.0766
      5 N1         -3.0648    4.7171    1.7463 N.pl3     1 MOL         0.2287
      6 O1         -4.2690    4.6746    1.4218 O.2       1 MOL        -0.2103
      7 O2         -2.3924    5.7673    1.7942 O.3       1 MOL        -0.2103
      8 H1          0.0365    0.0181   -0.0066 H         1 MOL         0.0402
      9 H2         -1.2605    0.7805   -0.9428 H         1 MOL         0.0402
     10 H3          0.2484    1.6605   -0.6450 H         1 MOL         0.0402
     11 H4         -1.7777    0.8126    1.4936 H         1 MOL         0.0457
     12 H5         -0.2735    1.6805    1.8065 H         1 MOL         0.0457
     13 H6         -1.0855    3.5797    0.3650 H         1 MOL         0.0679
     14 H7         -2.5894    2.7018    0.0734 H         1 MOL         0.0679
     15 H8         -1.6377    3.6468    2.8331 H         1 MOL         0.0942
     16 H9         -3.1467    2.7767    2.4881 H         1 MOL         0.0942
@<TRIPOS>BOND
     1    1    2 1
     2    2    3 1
     3    3    4 1
     4    4    5 1
     5    5    6 2
     6    5    7 1
     7    1    8 1
     8    1    9 1
     9    1   10 1
    10    2   11 1
    11    2   12 1
    12    3   13 1
    13    3   14 1
    14    4   15 1
    15    4   16 1
