@<TRIPOS>MOLECULE
o-cresol
   16    16     0     0     0
SMALL
USER_CHARGES

@<TRIPOS>ATOM
      1 C1          1.9474   -1.0231   -1.6040 C.3       1 MOL        -0.0451
      2 C2          1.8851   -1.0363   -0.1124 C.ar      1 MOL        -0.0996
      3 C3          2.9210   -1.6309    0.6081 C.ar      1 MOL        -0.1019
      4 C4          2.8783   -1.6520    2.0022 C.ar      1 MOL        -0.1606
      5 C5          1.7997   -1.0786    2.6757 C.ar      1 MOL        -0.0968
      6 C6          0.7638   -0.4841    1.9551 C.ar      1 MOL        -0.2094
      7 C7          0.8066   -0.4630    0.5610 C.ar      1 MOL         0.1221
      8 O1         -0.2138    0.1210   -0.1275 O.3       1 MOL        -0.4989
      9 H1          2.4593   -0.1197   -1.9495 H         1 MOL         0.0473
     10 H2          2.4841   -1.9001   -1.9807 H         1 MOL         0.0473
     11 H3          0.9420   -1.0480   -2.0375 H         1 MOL         0.0473
     12 H4          3.7662   -2.0795    0.0929 H         1 MOL         0.1339
     13 H5          3.6849   -2.1142    2.5640 H         1 MOL         0.1328
     14 H6          1.7669   -1.0937    3.7611 H         1 MOL         0.1316
     15 H7         -0.0736   -0.0391    2.4855 H         1 MOL         0.1318
     16 H8         -0.8784    0.4674    0.4884 H         1 MOL         0.4181
@<TRIPOS>BOND
     1    1    2 1
     2    2    7 ar
     3    2    3 ar
     4    3    4 ar
     5    4    5 ar
     6    5    6 ar
     7    6    7 ar
     8    7    8 1
     9    1    9 1
    10    1   10 1
    11    1   11 1
    12    3   12 1
    13    4   13 1
    14    5   14 1
    15    6   15 1
    16    8   16 1
