@<TRIPOS>MOLECULE
[(1S)-1-methylpropyl]benzene
   24    24     0     0     0
SMALL
USER_CHARGES

@<TRIPOS>ATOM
      1 C1          0.3475    0.8548    0.4435 C.3       1 MOL        -0.0956
      2 C2          0.3956    0.8503    1.9666 C.3       1 MOL        -0.0747
      3 C3         -0.9885    0.6449    2.6154 C.3       1 MOL        -0.0223
      4 H1         -1.6319    1.4717    2.2846 H         1 MOL         0.0536
      5 C4         -0.8826    0.7539    4.1414 C.3       1 MOL        -0.0879
      6 C5         -1.6445   -0.6670    2.2202 C.ar      1 MOL        -0.0687
      7 C6         -3.0350   -0.7618    2.1628 C.ar      1 MOL        -0.1292
      8 C7         -3.6376   -1.9663    1.8002 C.ar      1 MOL        -0.1293
      9 C8         -2.8497   -3.0762    1.4950 C.ar      1 MOL        -0.1340
     10 C9         -1.4592   -2.9814    1.5524 C.ar      1 MOL        -0.1293
     11 C10        -0.8566   -1.7768    1.9151 C.ar      1 MOL        -0.1292
     12 H2          1.3532    1.0036    0.0372 H         1 MOL         0.0359
     13 H3         -0.0331   -0.0924    0.0497 H         1 MOL         0.0359
     14 H4         -0.2895    1.6645    0.0736 H         1 MOL         0.0359
     15 H5          1.1040    0.0827    2.3002 H         1 MOL         0.0390
     16 H6          0.8042    1.8143    2.2954 H         1 MOL         0.0390
     17 H7         -1.8527    0.6119    4.6300 H         1 MOL         0.0368
     18 H8         -0.1977   -0.0048    4.5353 H         1 MOL         0.0368
     19 H9         -0.4987    1.7364    4.4390 H         1 MOL         0.0368
     20 H10        -3.6565    0.0978    2.3994 H         1 MOL         0.1308
     21 H11        -4.7202   -2.0400    1.7553 H         1 MOL         0.1298
     22 H12        -3.3186   -4.0142    1.2125 H         1 MOL         0.1293
     23 H13        -0.8458   -3.8457    1.3154 H         1 MOL         0.1298
     24 H14         0.2275   -1.7127    1.9567 H         1 MOL         0.1308
@<TRIPOS>BOND
     1    1    2 1
     2    2    3 1
     3    3    4 1
     4    3    5 1
     5    3    6 1
     6    6   11 ar
     7    6    7 ar
     8    7    8 ar
     9    8    9 ar
    10    9   10 ar
    11   10   11 ar
    12    1   12 1
    13    1   13 1
    14    1   14 1
    15    2   15 1
    16    2   16 1
    17    5   17 1
    18    5   18 1
    19    5   19 1
    20    7   20 1
    21    8   21 1
    22    9   22 1
    23   10   23 1
    24   11   24 1
