@<TRIPOS>MOLECULE
2-isopropylsulfanylpropane
   21    20     0     0     0
SMALL
USER_CHARGES

@<TRIPOS>ATOM
      1 C1          0.8900    0.3284    2.7307 C.3       1 MOL        -0.0859
      2 C2          1.2990    1.0057    1.4282 C.3       1 MOL         0.0222
      3 C3          0.9729    0.1338    0.2216 C.3       1 MOL        -0.0859
      4 S1          0.4464    2.6115    1.2755 S.3       1 MOL        -0.3406
      5 C4          1.5251    3.5751    2.3572 C.3       1 MOL         0.0222
      6 C5          2.7976    3.9846    1.6124 C.3       1 MOL        -0.0859
      7 C6          0.7865    4.8070    2.8851 C.3       1 MOL        -0.0859
      8 H1          1.1321    0.9697    3.5855 H         1 MOL         0.0431
      9 H2         -0.1889    0.1396    2.7604 H         1 MOL         0.0431
     10 H3          1.4106   -0.6249    2.8768 H         1 MOL         0.0431
     11 H4          2.3760    1.2036    1.4485 H         1 MOL         0.0615
     12 H5          1.2738    0.6370   -0.7041 H         1 MOL         0.0431
     13 H6         -0.1026   -0.0630    0.1507 H         1 MOL         0.0431
     14 H7          1.4971   -0.8280    0.2586 H         1 MOL         0.0431
     15 H8          1.8109    2.9468    3.2148 H         1 MOL         0.0615
     16 H9          3.4597    4.5702    2.2599 H         1 MOL         0.0431
     17 H10         3.3601    3.1041    1.2823 H         1 MOL         0.0431
     18 H11         2.5707    4.5980    0.7329 H         1 MOL         0.0431
     19 H12         1.4322    5.3994    3.5430 H         1 MOL         0.0431
     20 H13        -0.0946    4.5169    3.4683 H         1 MOL         0.0431
     21 H14         0.4591    5.4614    2.0692 H         1 MOL         0.0431
@<TRIPOS>BOND
     1    1    2 1
     2    2    3 1
     3    2    4 1
     4    4    5 1
     5    5    6 1
     6    5    7 1
     7    1    8 1
     8    1    9 1
     9    1   10 1
    10    2   11 1
    11    3   12 1
    12    3   13 1
    13    3   14 1
    14    5   15 1
    15    6   16 1
    16    6   17 1
    17    6   18 1
    18    7   19 1
    19    7   20 1
    20    7   21 1
