@<TRIPOS>MOLECULE
pentyl acetate
   23    22     0     0     0
SMALL
USER_CHARGES

@<TRIPOS>ATOM
      1 C1          0.7898   -0.3889    0.6495 C.3       1 MOL        -0.0940
      2 C2          1.6171   -1.4421   -0.0701 C.3       1 MOL        -0.0822
      3 C3          2.2938   -0.8687   -1.3148 C.3       1 MOL        -0.0727
      4 C4          3.1237   -1.9294   -2.0346 C.3       1 MOL        -0.1091
      5 C5          3.8013   -1.3663   -3.2758 C.3       1 MOL         0.1391
      6 O1          4.5541   -2.3990   -3.8966 O.3       1 MOL        -0.4614
      7 C6          5.2263   -2.0453   -5.0342 C.2       1 MOL         0.6370
      8 O2          5.2328   -0.9361   -5.5507 O.2       1 MOL        -0.5210
      9 C7          5.9720   -3.2274   -5.5752 C.3       1 MOL        -0.1586
     10 H1          0.3090   -0.8081    1.5392 H         1 MOL         0.0346
     11 H2          1.4137    0.4548    0.9610 H         1 MOL         0.0346
     12 H3          0.0059   -0.0059   -0.0114 H         1 MOL         0.0346
     13 H4          0.9678   -2.2795   -0.3511 H         1 MOL         0.0385
     14 H5          2.3748   -1.8355    0.6176 H         1 MOL         0.0385
     15 H6          1.5325   -0.4720   -1.9975 H         1 MOL         0.0431
     16 H7          2.9393   -0.0293   -1.0281 H         1 MOL         0.0431
     17 H8          2.4898   -2.7778   -2.3208 H         1 MOL         0.0471
     18 H9          3.8852   -2.3389   -1.3593 H         1 MOL         0.0471
     19 H10         4.4811   -0.5494   -3.0134 H         1 MOL         0.0680
     20 H11         3.0602   -0.9971   -3.9918 H         1 MOL         0.0680
     21 H12         5.3373   -3.7784   -6.2735 H         1 MOL         0.0751
     22 H13         6.2912   -3.8726   -4.7528 H         1 MOL         0.0751
     23 H14         6.8609   -2.8813   -6.1106 H         1 MOL         0.0751
@<TRIPOS>BOND
     1    1    2 1
     2    2    3 1
     3    3    4 1
     4    4    5 1
     5    5    6 1
     6    6    7 1
     7    7    8 2
     8    7    9 1
     9    1   10 1
    10    1   11 1
    11    1   12 1
    12    2   13 1
    13    2   14 1
    14    3   15 1
    15    3   16 1
    16    4   17 1
    17    4   18 1
    18    5   19 1
    19    5   20 1
    20    9   21 1
    21    9   22 1
    22    9   23 1
