@<TRIPOS>MOLECULE
9,10-dihydroanthracene
   26    28     0     0     0
SMALL
USER_CHARGES

@<TRIPOS>ATOM
      1 C1          2.0529   -0.1065   -0.6362 C.ar      1 MOL        -0.1294
      2 C2          0.7015    0.1770   -0.8101 C.ar      1 MOL        -0.1292
      3 C3          0.2472    0.6817   -2.0280 C.ar      1 MOL        -0.1285
      4 C4          1.1431    0.9191   -3.0814 C.ar      1 MOL        -0.0681
      5 C5          2.5064    0.6334   -2.9059 C.ar      1 MOL        -0.0681
      6 C6          2.9505    0.1148   -1.6801 C.ar      1 MOL        -0.1285
      7 C7          3.4951    0.8294   -4.0273 C.3       1 MOL         0.0088
      8 C8          3.0241    1.7329   -5.1387 C.ar      1 MOL        -0.0681
      9 C9          3.9612    2.2617   -6.0393 C.ar      1 MOL        -0.1285
     10 C10         3.5505    3.0748   -7.0951 C.ar      1 MOL        -0.1292
     11 C11         2.1990    3.3583   -7.2686 C.ar      1 MOL        -0.1292
     12 C12         1.2578    2.8285   -6.3867 C.ar      1 MOL        -0.1285
     13 C13         1.6607    2.0186   -5.3141 C.ar      1 MOL        -0.0681
     14 C14         0.6168    1.4315   -4.3981 C.3       1 MOL         0.0088
     15 H1          2.4077   -0.5052    0.3096 H         1 MOL         0.1314
     16 H2         -0.0000   -0.0003   -0.0001 H         1 MOL         0.1314
     17 H3         -0.8131    0.8881   -2.1536 H         1 MOL         0.1295
     18 H4          4.0017   -0.1215   -1.5342 H         1 MOL         0.1295
     19 H5          4.4141    1.2551   -3.6046 H         1 MOL         0.0605
     20 H6          3.7345   -0.1520   -4.4553 H         1 MOL         0.0605
     21 H7          5.0192    2.0394   -5.9219 H         1 MOL         0.1295
     22 H8          4.2845    3.4815   -7.7846 H         1 MOL         0.1314
     23 H9          1.8768    3.9868   -8.0937 H         1 MOL         0.1314
     24 H10         0.2045    3.0490   -6.5408 H         1 MOL         0.1295
     25 H11        -0.1331    2.2061   -4.1905 H         1 MOL         0.0605
     26 H12         0.1226    0.6034   -4.9210 H         1 MOL         0.0605
@<TRIPOS>BOND
     1    1    6 ar
     2    1    2 ar
     3    2    3 ar
     4    3    4 ar
     5    4   14 1
     6    4    5 ar
     7    5    6 ar
     8    5    7 1
     9    7    8 1
    10    8   13 ar
    11    8    9 ar
    12    9   10 ar
    13   10   11 ar
    14   11   12 ar
    15   12   13 ar
    16   13   14 1
    17    1   15 1
    18    2   16 1
    19    3   17 1
    20    6   18 1
    21    7   19 1
    22    7   20 1
    23    9   21 1
    24   10   22 1
    25   11   23 1
    26   12   24 1
    27   14   25 1
    28   14   26 1
