@<TRIPOS>MOLECULE
3-methylpyridine
   14    14     0     0     0
SMALL
USER_CHARGES

@<TRIPOS>ATOM
      1 C1          2.8852   -0.2665    3.6509 C.3       1 MOL        -0.0504
      2 C2          1.6520   -0.6227    2.8997 C.ar      1 MOL        -0.1916
      3 C3          1.3879   -0.0684    1.6522 C.ar      1 MOL        -0.0967
      4 C4          0.2265   -0.4197    0.9733 C.ar      1 MOL        -0.2422
      5 C5         -0.6317   -1.3224    1.5803 C.ar      1 MOL         0.3874
      6 N1         -0.4092   -1.8816    2.7908 N.ar      1 MOL        -0.6620
      7 C6          0.7299   -1.5161    3.4206 C.ar      1 MOL         0.3927
      8 H1          3.6948   -0.9547    3.3895 H         1 MOL         0.0470
      9 H2          3.2016    0.7562    3.4206 H         1 MOL         0.0470
     10 H3          2.7130   -0.3164    4.7313 H         1 MOL         0.0470
     11 H4          2.0808    0.6373    1.2020 H         1 MOL         0.1371
     12 H5         -0.0000   -0.0001   -0.0002 H         1 MOL         0.1425
     13 H6         -1.5507   -1.6289    1.0916 H         1 MOL         0.0210
     14 H7          0.8820   -1.9806    4.3900 H         1 MOL         0.0213
@<TRIPOS>BOND
     1    1    2 1
     2    2    7 ar
     3    2    3 ar
     4    3    4 ar
     5    4    5 ar
     6    5    6 ar
     7    6    7 ar
     8    1    8 1
     9    1    9 1
    10    1   10 1
    11    3   11 1
    12    4   12 1
    13    5   13 1
    14    7   14 1
