@<TRIPOS>MOLECULE
2,7-dichlorodibenzo-p-dioxin
   22    24     0     0     0
SMALL
USER_CHARGES

@<TRIPOS>ATOM
      1 C1         -1.0039   -0.2568    0.3257 C.ar      1 MOL        -0.1209
      2 C2         -1.4367   -1.5819    0.2693 C.ar      1 MOL        -0.1082
      3 C3         -2.7266   -1.9051    0.6889 C.ar      1 MOL         0.0624
      4 C4         -3.5799   -0.9097    1.1626 C.ar      1 MOL         0.0711
      5 C5         -3.1487    0.4152    1.2196 C.ar      1 MOL        -0.1126
      6 C6         -1.8584    0.7400    0.8000 C.ar      1 MOL         0.0188
      7 Cl1        -1.3185    2.3729    0.8663 Cl        1 MOL        -0.0799
      8 O1         -4.8561   -1.1828    1.5855 O.3       1 MOL        -0.2180
      9 C7         -5.2389   -2.4982    1.5123 C.ar      1 MOL         0.0624
     10 C8         -6.5287   -2.8214    1.9320 C.ar      1 MOL        -0.1082
     11 C9         -6.9616   -4.1465    1.8755 C.ar      1 MOL        -0.1208
     12 C10        -6.1071   -5.1433    1.4010 C.ar      1 MOL         0.0188
     13 C11        -4.8168   -4.8184    0.9815 C.ar      1 MOL        -0.1126
     14 C12        -4.3856   -3.4936    1.0385 C.ar      1 MOL         0.0711
     15 O2         -3.1093   -3.2205    0.6157 O.3       1 MOL        -0.2180
     16 Cl2        -6.6467   -6.7763    1.3347 Cl        1 MOL        -0.0799
     17 H1          0.0033   -0.0145   -0.0035 H         1 MOL         0.1560
     18 H2         -0.7664   -2.3525   -0.1011 H         1 MOL         0.1610
     19 H3         -3.8192    1.1867    1.5897 H         1 MOL         0.1703
     20 H4         -7.1990   -2.0508    2.3024 H         1 MOL         0.1610
     21 H5         -7.9687   -4.3890    2.2051 H         1 MOL         0.1560
     22 H6         -4.1464   -5.5899    0.6109 H         1 MOL         0.1703
@<TRIPOS>BOND
     1    1    6 ar
     2    1    2 ar
     3    2    3 ar
     4    3   15 1
     5    3    4 ar
     6    4    5 ar
     7    5    6 ar
     8    6    7 1
     9    4    8 1
    10    8    9 1
    11    9   14 ar
    12    9   10 ar
    13   10   11 ar
    14   11   12 ar
    15   12   13 ar
    16   13   14 ar
    17   14   15 1
    18   12   16 1
    19    1   17 1
    20    2   18 1
    21    5   19 1
    22   10   20 1
    23   11   21 1
    24   13   22 1
