@<TRIPOS>MOLECULE
2,3-dimethylnaphthalene
   24    25     0     0     0
SMALL
USER_CHARGES

@<TRIPOS>ATOM
      1 C1         -1.8901   -1.7249    0.9335 C.3       1 MOL        -0.0542
      2 C2         -0.4966   -2.0341    0.4940 C.ar      1 MOL        -0.0696
      3 C3         -0.0479   -3.3542    0.5448 C.ar      1 MOL        -0.1209
      4 C4          1.2560   -3.6839    0.1403 C.ar      1 MOL        -0.0359
      5 C5          1.7243   -5.0072    0.1848 C.ar      1 MOL        -0.1171
      6 C6          3.0228   -5.3167   -0.2210 C.ar      1 MOL        -0.1290
      7 C7          3.8693   -4.3100   -0.6758 C.ar      1 MOL        -0.1290
      8 C8          3.4207   -2.9899   -0.7267 C.ar      1 MOL        -0.1171
      9 C9          2.1168   -2.6602   -0.3222 C.ar      1 MOL        -0.0359
     10 C10         1.6484   -1.3369   -0.3665 C.ar      1 MOL        -0.1209
     11 C11         0.3500   -1.0275    0.0392 C.ar      1 MOL        -0.0696
     12 C12        -0.1088    0.3927   -0.0237 C.3       1 MOL        -0.0541
     13 H1         -2.5757   -1.7983    0.0838 H         1 MOL         0.0444
     14 H2         -2.2174   -2.4203    1.7136 H         1 MOL         0.0444
     15 H3         -1.9528   -0.7152    1.3529 H         1 MOL         0.0444
     16 H4         -0.7194   -4.1330    0.9026 H         1 MOL         0.1314
     17 H5          1.0798   -5.8102    0.5362 H         1 MOL         0.1313
     18 H6          3.3727   -6.3442   -0.1807 H         1 MOL         0.1307
     19 H7          4.8801   -4.5513   -0.9918 H         1 MOL         0.1307
     20 H8          4.0998   -2.2196   -1.0862 H         1 MOL         0.1313
     21 H9          2.3009   -0.5400   -0.7199 H         1 MOL         0.1314
     22 H10        -0.5614    0.6025   -0.9997 H         1 MOL         0.0444
     23 H11        -0.8486    0.6050    0.7578 H         1 MOL         0.0444
     24 H12         0.7271    1.0861    0.1307 H         1 MOL         0.0444
@<TRIPOS>BOND
     1    1    2 1
     2    2   11 ar
     3    2    3 ar
     4    3    4 ar
     5    4    9 ar
     6    4    5 ar
     7    5    6 ar
     8    6    7 ar
     9    7    8 ar
    10    8    9 ar
    11    9   10 ar
    12   10   11 ar
    13   11   12 1
    14    1   13 1
    15    1   14 1
    16    1   15 1
    17    3   16 1
    18    5   17 1
    19    6   18 1
    20    7   19 1
    21    8   20 1
    22   10   21 1
    23   12   22 1
    24   12   23 1
    25   12   24 1
