@<TRIPOS>MOLECULE
1,2,3,4-tetrachloro-5-(3,4,5-trichlorophenyl)benzene
   22    23     0     0     0
SMALL
USER_CHARGES

@<TRIPOS>ATOM
      1 C1          1.8851   -1.0363   -0.1124 C.ar      1 MOL        -0.0963
      2 C2          2.9210   -1.6309    0.6081 C.ar      1 MOL        -0.0353
      3 C3          2.8783   -1.6520    2.0022 C.ar      1 MOL        -0.0963
      4 C4          1.7997   -1.0786    2.6757 C.ar      1 MOL         0.0210
      5 C5          0.7638   -0.4841    1.9551 C.ar      1 MOL         0.0238
      6 C6          0.8066   -0.4630    0.5610 C.ar      1 MOL         0.0210
      7 Cl1        -0.4407    0.2561   -0.3994 Cl        1 MOL        -0.0555
      8 Cl2        -0.5808    0.2293    2.7943 Cl        1 MOL        -0.0377
      9 Cl3         1.8157   -1.1441    4.4050 Cl        1 MOL        -0.0555
     10 C7          4.0395   -2.2261   -0.0907 C.ar      1 MOL        -0.0280
     11 C8          3.9448   -3.5736   -0.4385 C.ar      1 MOL        -0.0973
     12 C9          4.9953   -4.1952   -1.1134 C.ar      1 MOL         0.0198
     13 C10         6.1407   -3.4694   -1.4405 C.ar      1 MOL         0.0273
     14 C11         6.2354   -2.1219   -1.0926 C.ar      1 MOL         0.0190
     15 C12         5.1848   -1.5003   -0.4177 C.ar      1 MOL         0.0357
     16 Cl4         5.2838    0.1801    0.0299 Cl        1 MOL        -0.0403
     17 Cl5         7.6654   -1.2138   -1.4994 Cl        1 MOL        -0.0341
     18 Cl6         7.4438   -4.2588   -2.2825 Cl        1 MOL        -0.0328
     19 Cl7         4.8017   -5.8685   -1.5128 Cl        1 MOL        -0.0488
     20 H1          1.9218   -1.0199   -1.2005 H         1 MOL         0.1622
     21 H2          3.6877   -2.1171    2.5619 H         1 MOL         0.1622
     22 H3          3.0496   -4.1395   -0.1857 H         1 MOL         0.1663
@<TRIPOS>BOND
     1    1    6 ar
     2    1    2 ar
     3    2    3 ar
     4    3    4 ar
     5    4    5 ar
     6    5    6 ar
     7    6    7 1
     8    5    8 1
     9    4    9 1
    10    2   10 1
    11   10   15 ar
    12   10   11 ar
    13   11   12 ar
    14   12   13 ar
    15   13   14 ar
    16   14   15 ar
    17   15   16 1
    18   14   17 1
    19   13   18 1
    20   12   19 1
    21    1   20 1
    22    3   21 1
    23   11   22 1
