@<TRIPOS>MOLECULE
2-methoxypropane
   15    14     0     0     0
SMALL
USER_CHARGES

@<TRIPOS>ATOM
      1 C1          1.0765    0.0499    0.1958 C.3       1 MOL        -0.1072
      2 C2          1.3532    0.9191    1.4130 C.3       1 MOL         0.1352
      3 C3          2.8427    1.0382    1.6976 C.3       1 MOL        -0.1072
      4 O1          0.8123    2.2184    1.1940 O.3       1 MOL        -0.4166
      5 C4         -0.5869    2.2451    1.4354 C.3       1 MOL         0.1159
      6 H1          0.0028   -0.0291    0.0000 H         1 MOL         0.0429
      7 H2          1.5641    0.4693   -0.6907 H         1 MOL         0.0429
      8 H3          1.4833   -0.9585    0.3305 H         1 MOL         0.0429
      9 H4          0.8468    0.4961    2.2868 H         1 MOL         0.0282
     10 H5          3.0308    1.6651    2.5746 H         1 MOL         0.0429
     11 H6          3.3614    1.4749    0.8374 H         1 MOL         0.0429
     12 H7          3.2912    0.0533    1.8684 H         1 MOL         0.0429
     13 H8         -0.9645    3.2536    1.2579 H         1 MOL         0.0313
     14 H9         -0.7811    1.9445    2.4665 H         1 MOL         0.0313
     15 H10        -1.0744    1.5471    0.7529 H         1 MOL         0.0313
@<TRIPOS>BOND
     1    1    2 1
     2    2    3 1
     3    2    4 1
     4    4    5 1
     5    1    6 1
     6    1    7 1
     7    1    8 1
     8    2    9 1
     9    3   10 1
    10    3   11 1
    11    3   12 1
    12    5   13 1
    13    5   14 1
    14    5   15 1
