@<TRIPOS>MOLECULE
3,5-dimethylpyridine
   17    17     0     0     0
SMALL
USER_CHARGES

@<TRIPOS>ATOM
      1 C1          2.8845   -0.2657    3.6520 C.3       1 MOL        -0.0501
      2 C2          1.6520   -0.6227    2.8997 C.ar      1 MOL        -0.1874
      3 C3          1.3879   -0.0684    1.6522 C.ar      1 MOL        -0.0995
      4 C4          0.2265   -0.4197    0.9733 C.ar      1 MOL        -0.1874
      5 C5         -0.6317   -1.3224    1.5803 C.ar      1 MOL         0.3877
      6 N1         -0.4092   -1.8816    2.7908 N.ar      1 MOL        -0.6594
      7 C6          0.7299   -1.5161    3.4206 C.ar      1 MOL         0.3877
      8 C7         -0.0853    0.1564   -0.3622 C.3       1 MOL        -0.0501
      9 H1          3.6946   -0.9538    3.3918 H         1 MOL         0.0467
     10 H2          3.2009    0.7569    3.4214 H         1 MOL         0.0467
     11 H3          2.7112   -0.3151    4.7322 H         1 MOL         0.0467
     12 H4          2.0875    0.6364    1.2092 H         1 MOL         0.1369
     13 H5         -1.5535   -1.6337    1.0981 H         1 MOL         0.0209
     14 H6          0.8820   -1.9804    4.3903 H         1 MOL         0.0209
     15 H7          0.3330   -0.4713   -1.1604 H         1 MOL         0.0467
     16 H8         -1.1696    0.2394   -0.5214 H         1 MOL         0.0467
     17 H9          0.3265    1.1700   -0.4691 H         1 MOL         0.0467
@<TRIPOS>BOND
     1    1    2 1
     2    2    7 ar
     3    2    3 ar
     4    3    4 ar
     5    4    5 ar
     6    5    6 ar
     7    6    7 ar
     8    4    8 1
     9    1    9 1
    10    1   10 1
    11    1   11 1
    12    3   12 1
    13    5   13 1
    14    7   14 1
    15    8   15 1
    16    8   16 1
    17    8   17 1
