@<TRIPOS>MOLECULE
propane-1-thiol
   12    11     0     0     0
SMALL
USER_CHARGES

@<TRIPOS>ATOM
      1 C1          0.1575   -0.4974    0.9622 C.3       1 MOL        -0.0938
      2 C2          1.6397   -0.5220    1.3061 C.3       1 MOL        -0.0843
      3 C3          1.8811   -1.2098    2.6451 C.3       1 MOL         0.0060
      4 S1          3.6529   -1.2302    3.0395 S.3       1 MOL        -0.3792
      5 H1         -0.0139   -0.0032    0.0005 H         1 MOL         0.0366
      6 H2         -0.2326   -1.5178    0.8940 H         1 MOL         0.0366
      7 H3         -0.4144    0.0345    1.7293 H         1 MOL         0.0366
      8 H4          2.0115    0.5095    1.3338 H         1 MOL         0.0483
      9 H5          2.1779   -1.0441    0.5058 H         1 MOL         0.0483
     10 H6          1.3531   -0.6868    3.4490 H         1 MOL         0.0728
     11 H7          1.5199   -2.2429    2.6195 H         1 MOL         0.0728
     12 H8          4.0307   -1.9274    1.9595 H         1 MOL         0.1995
@<TRIPOS>BOND
     1    1    2 1
     2    2    3 1
     3    3    4 1
     4    1    5 1
     5    1    6 1
     6    1    7 1
     7    2    8 1
     8    2    9 1
     9    3   10 1
    10    3   11 1
    11    4   12 1
