@<TRIPOS>MOLECULE
1,1,1,2,2-pentachloroethane
    8     7     0     0     0
SMALL
USER_CHARGES

@<TRIPOS>ATOM
      1 C1         -0.4928    0.4027   -0.4760 C.3       1 MOL         0.1175
      2 C2          0.4490   -0.4711    0.3773 C.3       1 MOL         0.2282
      3 Cl1         1.8648   -1.0081   -0.5970 Cl        1 MOL        -0.0883
      4 Cl2        -0.3990   -1.9622    0.9252 Cl        1 MOL        -0.0883
      5 Cl3         1.0593    0.3923    1.8265 Cl        1 MOL        -0.0883
      6 Cl4        -1.9284    0.9734    0.4356 Cl        1 MOL        -0.1024
      7 Cl5         0.3273    1.8413   -1.1653 Cl        1 MOL        -0.1024
      8 H1         -0.8776   -0.1672   -1.3280 H         1 MOL         0.1240
@<TRIPOS>BOND
     1    1    2 1
     2    2    3 1
     3    2    4 1
     4    2    5 1
     5    1    6 1
     6    1    7 1
     7    1    8 1
