@<TRIPOS>MOLECULE
pyridine-3-carbonitrile
   12    12     0     0     0
SMALL
USER_CHARGES

@<TRIPOS>ATOM
      1 C1          1.6520   -0.6227    2.8997 C.ar      1 MOL        -0.2495
      2 C2          1.3879   -0.0684    1.6522 C.ar      1 MOL        -0.0563
      3 C3          0.2265   -0.4197    0.9733 C.ar      1 MOL        -0.1359
      4 C4         -0.6317   -1.3224    1.5803 C.ar      1 MOL         0.4364
      5 N1         -0.4092   -1.8816    2.7908 N.ar      1 MOL        -0.6643
      6 C5          0.7299   -1.5161    3.4206 C.ar      1 MOL         0.4159
      7 C6         -0.0721    0.1325   -0.3077 C.1       1 MOL         0.2350
      8 N2         -0.3158    0.5832   -1.3532 N.1       1 MOL        -0.3518
      9 H1          2.5513   -0.3639    3.4470 H         1 MOL         0.1538
     10 H2          2.0964    0.6352    1.2220 H         1 MOL         0.1508
     11 H3         -1.5550   -1.6384    1.1027 H         1 MOL         0.0366
     12 H4          0.8895   -1.9762    4.3902 H         1 MOL         0.0294
@<TRIPOS>BOND
     1    1    6 ar
     2    1    2 ar
     3    2    3 ar
     4    3    4 ar
     5    4    5 ar
     6    5    6 ar
     7    3    7 1
     8    7    8 3
     9    1    9 1
    10    2   10 1
    11    4   11 1
    12    6   12 1
