@<TRIPOS>MOLECULE
propan-1-ol
   12    11     0     0     0
SMALL
USER_CHARGES

@<TRIPOS>ATOM
      1 C1         -0.0035   -0.6640    0.8700 C.3       1 MOL        -0.0928
      2 C2          1.2444   -0.4434    1.7060 C.3       1 MOL        -0.0868
      3 C3          1.2749   -1.3494    2.9273 C.3       1 MOL         0.1324
      4 O1          2.4640   -1.0915    3.6610 O.3       1 MOL        -0.6031
      5 H1         -0.0110   -0.0055   -0.0044 H         1 MOL         0.0349
      6 H2         -0.0454   -1.6989    0.5161 H         1 MOL         0.0349
      7 H3         -0.9074   -0.4685    1.4555 H         1 MOL         0.0349
      8 H4          1.2990    0.6047    2.0239 H         1 MOL         0.0538
      9 H5          2.1379   -0.6194    1.0950 H         1 MOL         0.0538
     10 H6          0.4156   -1.1576    3.5778 H         1 MOL         0.0198
     11 H7          1.2695   -2.4035    2.6321 H         1 MOL         0.0198
     12 H8          2.4527   -1.6833    4.4307 H         1 MOL         0.3985
@<TRIPOS>BOND
     1    1    2 1
     2    2    3 1
     3    3    4 1
     4    1    5 1
     5    1    6 1
     6    1    7 1
     7    2    8 1
     8    2    9 1
     9    3   10 1
    10    3   11 1
    11    4   12 1
