@<TRIPOS>MOLECULE
1,3,5-triazinane-2,4,6-trione
   12    12     0     0     0
SMALL
USER_CHARGES

@<TRIPOS>ATOM
      1 C1         -0.6629    1.1635    0.5052 C.2       1 MOL         0.8218
      2 O1         -1.2339    2.1640    0.9397 O.2       1 MOL        -0.6052
      3 N1         -0.4836    0.0076    1.2611 N.am      1 MOL        -0.5918
      4 C2          0.1500   -1.1556    0.8309 C.2       1 MOL         0.8219
      5 O2          0.2791   -2.1498    1.5456 O.2       1 MOL        -0.6052
      6 N2          0.6254   -1.0981   -0.4769 N.am      1 MOL        -0.5918
      7 C3          0.5130   -0.0078   -1.3362 C.2       1 MOL         0.8219
      8 O3          0.9544   -0.0144   -2.4855 O.2       1 MOL        -0.6052
      9 N3         -0.1414    1.0907   -0.7841 N.am      1 MOL        -0.5918
     10 H1         -0.8471    0.0134    2.2098 H         1 MOL         0.3752
     11 H2          1.0955   -1.9242   -0.8357 H         1 MOL         0.3752
     12 H3         -0.2474    1.9113   -1.3737 H         1 MOL         0.3752
@<TRIPOS>BOND
     1    1    9 am
     2    1    2 2
     3    1    3 am
     4    3    4 am
     5    4    5 2
     6    4    6 am
     7    6    7 am
     8    7    8 2
     9    7    9 am
    10    3   10 1
    11    6   11 1
    12    9   12 1
