@<TRIPOS>MOLECULE
2,6-dimethylphenol
   19    19     0     0     0
SMALL
USER_CHARGES

@<TRIPOS>ATOM
      1 C1          1.9503   -1.0222   -1.6041 C.3       1 MOL        -0.0494
      2 C2          1.8851   -1.0363   -0.1124 C.ar      1 MOL        -0.1251
      3 C3          2.9210   -1.6309    0.6081 C.ar      1 MOL        -0.1031
      4 C4          2.8783   -1.6520    2.0022 C.ar      1 MOL        -0.1566
      5 C5          1.7997   -1.0786    2.6757 C.ar      1 MOL        -0.1031
      6 C6          0.7638   -0.4841    1.9551 C.ar      1 MOL        -0.1251
      7 C7          0.8066   -0.4630    0.5610 C.ar      1 MOL         0.1244
      8 O1         -0.2062    0.1190   -0.1432 O.3       1 MOL        -0.5015
      9 C8         -0.3825    0.1239    2.6944 C.3       1 MOL        -0.0494
     10 H1          2.4637   -0.1191   -1.9480 H         1 MOL         0.0453
     11 H2          2.4870   -1.8995   -1.9803 H         1 MOL         0.0453
     12 H3          0.9457   -1.0460   -2.0395 H         1 MOL         0.0453
     13 H4          3.7664   -2.0783    0.0925 H         1 MOL         0.1321
     14 H5          3.6850   -2.1146    2.5633 H         1 MOL         0.1328
     15 H6          1.7751   -1.1006    3.7619 H         1 MOL         0.1321
     16 H7         -0.8760    0.4696    0.4638 H         1 MOL         0.4200
     17 H8         -0.1778    1.1787    2.9116 H         1 MOL         0.0453
     18 H9         -1.3091    0.0606    2.1105 H         1 MOL         0.0453
     19 H10        -0.5655   -0.3990    3.6413 H         1 MOL         0.0453
@<TRIPOS>BOND
     1    1    2 1
     2    2    7 ar
     3    2    3 ar
     4    3    4 ar
     5    4    5 ar
     6    5    6 ar
     7    6    7 ar
     8    7    8 1
     9    6    9 1
    10    1   10 1
    11    1   11 1
    12    1   12 1
    13    3   13 1
    14    4   14 1
    15    5   15 1
    16    8   16 1
    17    9   17 1
    18    9   18 1
    19    9   19 1
