@<TRIPOS>MOLECULE
1-ethylnaphthalene
   24    25     0     0     0
SMALL
USER_CHARGES

@<TRIPOS>ATOM
      1 C1         -0.9114   -4.5698    2.5513 C.3       1 MOL        -0.0908
      2 C2         -1.0094   -4.3873    1.0445 C.3       1 MOL        -0.0415
      3 C3         -0.0479   -3.3542    0.5448 C.ar      1 MOL        -0.0625
      4 C4         -0.4966   -2.0341    0.4940 C.ar      1 MOL        -0.1309
      5 C5          0.3500   -1.0275    0.0392 C.ar      1 MOL        -0.1248
      6 C6          1.6484   -1.3369   -0.3665 C.ar      1 MOL        -0.1215
      7 C7          2.1168   -2.6602   -0.3222 C.ar      1 MOL        -0.0346
      8 C8          1.2560   -3.6839    0.1403 C.ar      1 MOL        -0.0270
      9 C9          1.7243   -5.0072    0.1848 C.ar      1 MOL        -0.1185
     10 C10         3.0228   -5.3167   -0.2210 C.ar      1 MOL        -0.1293
     11 C11         3.8693   -4.3100   -0.6758 C.ar      1 MOL        -0.1283
     12 C12         3.4207   -2.9899   -0.7267 C.ar      1 MOL        -0.1182
     13 H1         -1.6183   -5.3271    2.9067 H         1 MOL         0.0371
     14 H2         -1.1379   -3.6285    3.0618 H         1 MOL         0.0371
     15 H3          0.0949   -4.8835    2.8489 H         1 MOL         0.0371
     16 H4         -2.0327   -4.1020    0.7717 H         1 MOL         0.0469
     17 H5         -0.8179   -5.3435    0.5423 H         1 MOL         0.0469
     18 H6         -1.5058   -1.7800    0.8075 H         1 MOL         0.1311
     19 H7          0.0006   -0.0000   -0.0016 H         1 MOL         0.1318
     20 H8          2.2930   -0.5342   -0.7188 H         1 MOL         0.1318
     21 H9          1.0938   -5.8214    0.5342 H         1 MOL         0.1344
     22 H10         3.3733   -6.3440   -0.1817 H         1 MOL         0.1309
     23 H11         4.8798   -4.5519   -0.9922 H         1 MOL         0.1311
     24 H12         4.0999   -2.2195   -1.0857 H         1 MOL         0.1318
@<TRIPOS>BOND
     1    1    2 1
     2    2    3 1
     3    3    8 ar
     4    3    4 ar
     5    4    5 ar
     6    5    6 ar
     7    6    7 ar
     8    7   12 ar
     9    7    8 ar
    10    8    9 ar
    11    9   10 ar
    12   10   11 ar
    13   11   12 ar
    14    1   13 1
    15    1   14 1
    16    1   15 1
    17    2   16 1
    18    2   17 1
    19    4   18 1
    20    5   19 1
    21    6   20 1
    22    9   21 1
    23   10   22 1
    24   11   23 1
    25   12   24 1
