@<TRIPOS>MOLECULE
3-chloropyridine
   11    11     0     0     0
SMALL
USER_CHARGES

@<TRIPOS>ATOM
      1 C1          1.6520   -0.6227    2.8997 C.ar      1 MOL        -0.2359
      2 C2          1.3879   -0.0684    1.6522 C.ar      1 MOL        -0.0909
      3 C3          0.2265   -0.4197    0.9733 C.ar      1 MOL        -0.1063
      4 C4         -0.6317   -1.3224    1.5803 C.ar      1 MOL         0.4048
      5 N1         -0.4092   -1.8816    2.7908 N.ar      1 MOL        -0.6559
      6 C5          0.7299   -1.5161    3.4206 C.ar      1 MOL         0.3936
      7 Cl1        -0.1322    0.2428   -0.5669 Cl        1 MOL        -0.0734
      8 H1          2.5513   -0.3636    3.4468 H         1 MOL         0.1505
      9 H2          2.0951    0.6354    1.2214 H         1 MOL         0.1509
     10 H3         -1.5544   -1.6371    1.1018 H         1 MOL         0.0364
     11 H4          0.8889   -1.9765    4.3902 H         1 MOL         0.0264
@<TRIPOS>BOND
     1    1    6 ar
     2    1    2 ar
     3    2    3 ar
     4    3    4 ar
     5    4    5 ar
     6    5    6 ar
     7    3    7 1
     8    1    8 1
     9    2    9 1
    10    4   10 1
    11    6   11 1
