@<TRIPOS>MOLECULE
1-pyrrolidin-1-ylethanone
   19    19     0     0     0
SMALL
USER_CHARGES

@<TRIPOS>ATOM
      1 C1          0.1446   -2.7768    4.2009 C.3       1 MOL        -0.1706
      2 C2         -0.8576   -2.3754    3.1485 C.2       1 MOL         0.6705
      3 O1         -2.0624   -2.3650    3.4059 O.2       1 MOL        -0.6092
      4 N1         -0.3265   -2.0398    1.9165 N.am      1 MOL        -0.4930
      5 C3          1.0860   -2.0286    1.5489 C.3       1 MOL         0.0978
      6 C4          1.0829   -1.8649    0.0355 C.3       1 MOL        -0.0925
      7 C5         -0.1848   -1.0587   -0.2182 C.3       1 MOL        -0.0925
      8 C6         -1.1613   -1.6371    0.7942 C.3       1 MOL         0.0978
      9 H1          0.3237   -3.8546    4.1628 H         1 MOL         0.0640
     10 H2         -0.2253   -2.5167    5.1966 H         1 MOL         0.0640
     11 H3          1.0930   -2.2567    4.0398 H         1 MOL         0.0640
     12 H4          1.5537   -1.1704    2.0433 H         1 MOL         0.0463
     13 H5          1.5856   -2.9456    1.8726 H         1 MOL         0.0463
     14 H6          1.9855   -1.3732   -0.3372 H         1 MOL         0.0536
     15 H7          1.0004   -2.8457   -0.4481 H         1 MOL         0.0536
     16 H8         -0.0000    0.0001   -0.0003 H         1 MOL         0.0536
     17 H9         -0.5460   -1.1401   -1.2469 H         1 MOL         0.0536
     18 H10        -1.9253   -0.9217    1.1127 H         1 MOL         0.0463
     19 H11        -1.6560   -2.5353    0.4084 H         1 MOL         0.0463
@<TRIPOS>BOND
     1    1    2 1
     2    2    3 2
     3    2    4 am
     4    4    8 1
     5    4    5 1
     6    5    6 1
     7    6    7 1
     8    7    8 1
     9    1    9 1
    10    1   10 1
    11    1   11 1
    12    5   12 1
    13    5   13 1
    14    6   14 1
    15    6   15 1
    16    7   16 1
    17    7   17 1
    18    8   18 1
    19    8   19 1
