@<TRIPOS>MOLECULE
4-methoxyaniline
   18    18     0     0     0
SMALL
USER_CHARGES

@<TRIPOS>ATOM
      1 C1          0.8346   -0.3919   -2.1377 C.3       1 MOL         0.1122
      2 O1          1.9269   -1.0157   -1.4727 O.3       1 MOL        -0.3255
      3 C2          1.8851   -1.0363   -0.1124 C.ar      1 MOL         0.0808
      4 C3          2.9210   -1.6309    0.6081 C.ar      1 MOL        -0.1425
      5 C4          2.8783   -1.6520    2.0022 C.ar      1 MOL        -0.1557
      6 C5          1.7997   -1.0786    2.6757 C.ar      1 MOL         0.0988
      7 C6          0.7638   -0.4841    1.9551 C.ar      1 MOL        -0.1557
      8 C7          0.8066   -0.4630    0.5610 C.ar      1 MOL        -0.1425
      9 N1          1.7564   -1.1001    4.0852 N.pl3     1 MOL        -0.8090
     10 H1          0.9884   -0.4420   -3.2184 H         1 MOL         0.0422
     11 H2          0.7592    0.6503   -1.8175 H         1 MOL         0.0422
     12 H3         -0.0869   -0.9183   -1.8782 H         1 MOL         0.0422
     13 H4          3.7638   -2.0794    0.0892 H         1 MOL         0.1418
     14 H5          3.6908   -2.1179    2.5539 H         1 MOL         0.1333
     15 H6         -0.0815   -0.0345    2.4698 H         1 MOL         0.1333
     16 H7         -0.0032    0.0018    0.0052 H         1 MOL         0.1418
     17 H8          1.0017   -0.6444    4.5572 H         1 MOL         0.3812
     18 H9          2.5274   -1.4872    4.5909 H         1 MOL         0.3812
@<TRIPOS>BOND
     1    1    2 1
     2    2    3 1
     3    3    8 ar
     4    3    4 ar
     5    4    5 ar
     6    5    6 ar
     7    6    7 ar
     8    7    8 ar
     9    6    9 1
    10    1   10 1
    11    1   11 1
    12    1   12 1
    13    4   13 1
    14    5   14 1
    15    7   15 1
    16    8   16 1
    17    9   17 1
    18    9   18 1
