@<TRIPOS>MOLECULE
butan-1-amine
   16    15     0     0     0
SMALL
USER_CHARGES

@<TRIPOS>ATOM
      1 C1         -0.5039    0.9672   -0.1069 C.3       1 MOL        -0.0933
      2 C2         -1.0392    1.4313    1.2387 C.3       1 MOL        -0.0754
      3 C3         -1.8134    2.7450    1.1091 C.3       1 MOL        -0.1212
      4 C4         -2.3629    3.2356    2.4445 C.3       1 MOL         0.1517
      5 N1         -3.0889    4.4689    2.3187 N.3       1 MOL        -0.9073
      6 H1          0.0484    0.0274   -0.0063 H         1 MOL         0.0337
      7 H2         -1.3293    0.8030   -0.8068 H         1 MOL         0.0337
      8 H3          0.1664    1.7153   -0.5420 H         1 MOL         0.0337
      9 H4         -1.6921    0.6541    1.6527 H         1 MOL         0.0405
     10 H5         -0.1991    1.5530    1.9317 H         1 MOL         0.0405
     11 H6         -1.1638    3.5127    0.6707 H         1 MOL         0.0367
     12 H7         -2.6533    2.6000    0.4188 H         1 MOL         0.0367
     13 H8         -1.5597    3.3916    3.1716 H         1 MOL         0.0504
     14 H9         -3.0572    2.4968    2.8573 H         1 MOL         0.0504
     15 H10        -4.0564    4.4445    2.0359 H         1 MOL         0.3445
     16 H11        -2.5820    5.3406    2.3133 H         1 MOL         0.3445
@<TRIPOS>BOND
     1    1    2 1
     2    2    3 1
     3    3    4 1
     4    4    5 1
     5    1    6 1
     6    1    7 1
     7    1    8 1
     8    2    9 1
     9    2   10 1
    10    3   11 1
    11    3   12 1
    12    4   13 1
    13    4   14 1
    14    5   15 1
    15    5   16 1
