@<TRIPOS>MOLECULE
3-nitrophenol
   15    15     0     0     0
SMALL
USER_CHARGES

@<TRIPOS>ATOM
      1 C1          1.8851   -1.0363   -0.1124 C.ar      1 MOL        -0.1004
      2 C2          2.9210   -1.6309    0.6081 C.ar      1 MOL        -0.1061
      3 C3          2.8783   -1.6520    2.0022 C.ar      1 MOL        -0.1403
      4 C4          1.7997   -1.0786    2.6757 C.ar      1 MOL        -0.0976
      5 C5          0.7638   -0.4841    1.9551 C.ar      1 MOL         0.1190
      6 C6          0.8066   -0.4630    0.5610 C.ar      1 MOL        -0.1754
      7 O1         -0.2893    0.0750    2.6115 O.3       1 MOL        -0.4862
      8 N1          3.9329   -2.2572    2.7357 N.pl3     1 MOL         0.3109
      9 O2          3.8750   -2.2653    3.9891 O.2       1 MOL        -0.2037
     10 O3          4.8937   -2.7672    2.1104 O.3       1 MOL        -0.2037
     11 H1          1.9186   -1.0195   -1.1979 H         1 MOL         0.1495
     12 H2          3.7558   -2.0743    0.0706 H         1 MOL         0.1743
     13 H3          1.7601   -1.0907    3.7627 H         1 MOL         0.1878
     14 H4          0.0025   -0.0014   -0.0056 H         1 MOL         0.1454
     15 H5         -0.9232    0.4452    1.9766 H         1 MOL         0.4263
@<TRIPOS>BOND
     1    1    6 ar
     2    1    2 ar
     3    2    3 ar
     4    3    4 ar
     5    4    5 ar
     6    5    6 ar
     7    5    7 1
     8    3    8 1
     9    8    9 2
    10    8   10 1
    11    1   11 1
    12    2   12 1
    13    4   13 1
    14    6   14 1
    15    7   15 1
