@<TRIPOS>MOLECULE
2-ethylpyrazine
   16    16     0     0     0
SMALL
USER_CHARGES

@<TRIPOS>ATOM
      1 C1          0.7913    0.9899    1.1550 C.3       1 MOL        -0.0907
      2 C2          0.0878    0.3939   -0.0546 C.3       1 MOL        -0.1299
      3 C3         -0.3211   -1.0181    0.1824 C.ar      1 MOL         0.3002
      4 C4         -1.5571   -1.3073    0.7174 C.ar      1 MOL         0.2817
      5 N1         -1.9573   -2.5739    0.9453 N.ar      1 MOL        -0.6264
      6 C5         -1.0772   -3.5410    0.6188 C.ar      1 MOL         0.2724
      7 C6          0.1585   -3.2519    0.0831 C.ar      1 MOL         0.2863
      8 N2          0.5588   -1.9852   -0.1444 N.ar      1 MOL        -0.6333
      9 H1          1.0879    2.0280    0.9707 H         1 MOL         0.0408
     10 H2          1.6934    0.4159    1.3888 H         1 MOL         0.0408
     11 H3          0.1430    0.9774    2.0378 H         1 MOL         0.0408
     12 H4          0.7475    0.4453   -0.9293 H         1 MOL         0.0588
     13 H5         -0.7938    0.9966   -0.3047 H         1 MOL         0.0588
     14 H6         -2.2694   -0.5353    0.9841 H         1 MOL         0.0336
     15 H7         -1.3988   -4.5586    0.8024 H         1 MOL         0.0328
     16 H8          0.8651   -4.0292   -0.1802 H         1 MOL         0.0334
@<TRIPOS>BOND
     1    1    2 1
     2    2    3 1
     3    3    8 ar
     4    3    4 ar
     5    4    5 ar
     6    5    6 ar
     7    6    7 ar
     8    7    8 ar
     9    1    9 1
    10    1   10 1
    11    1   11 1
    12    2   12 1
    13    2   13 1
    14    4   14 1
    15    6   15 1
    16    7   16 1
