@<TRIPOS>MOLECULE
propylcyclopentane
   24    24     0     0     0
SMALL
USER_CHARGES

@<TRIPOS>ATOM
      1 C1          2.6344   -1.6917   -5.5628 C.3       1 MOL        -0.0926
      2 C2          2.0878   -1.4964   -4.1576 C.3       1 MOL        -0.0808
      3 C3          0.5910   -1.1933   -4.1767 C.3       1 MOL        -0.0690
      4 C4          0.0448   -0.9981   -2.7731 C.3       1 MOL        -0.0697
      5 C5          0.6372    0.2135   -2.0602 C.3       1 MOL        -0.0769
      6 C6         -0.3396    0.4881   -0.9209 C.3       1 MOL        -0.0802
      7 C7         -1.6799   -0.1059   -1.3575 C.3       1 MOL        -0.0802
      8 C8         -1.4494   -0.6928   -2.7462 C.3       1 MOL        -0.0769
      9 H1          3.7071   -1.9083   -5.5398 H         1 MOL         0.0322
     10 H2          2.1272   -2.5189   -6.0693 H         1 MOL         0.0322
     11 H3          2.4834   -0.7854   -6.1577 H         1 MOL         0.0322
     12 H4          2.2773   -2.4014   -3.5688 H         1 MOL         0.0391
     13 H5          2.6281   -0.6751   -3.6724 H         1 MOL         0.0391
     14 H6          0.4015   -0.2879   -4.7654 H         1 MOL         0.0405
     15 H7          0.0507   -2.0145   -4.6620 H         1 MOL         0.0405
     16 H8          0.2422   -1.9014   -2.1809 H         1 MOL         0.0449
     17 H9          1.6518    0.0270   -1.6943 H         1 MOL         0.0417
     18 H10         0.6757    1.0813   -2.7303 H         1 MOL         0.0417
     19 H11         0.0009    0.0008    0.0000 H         1 MOL         0.0397
     20 H12        -0.4171    1.5603   -0.7140 H         1 MOL         0.0397
     21 H13        -1.9815   -0.8931   -0.6567 H         1 MOL         0.0397
     22 H14        -2.4750    0.6463   -1.3687 H         1 MOL         0.0397
     23 H15        -2.0610   -1.5832   -2.9214 H         1 MOL         0.0417
     24 H16        -1.7112    0.0502   -3.5096 H         1 MOL         0.0417
@<TRIPOS>BOND
     1    1    2 1
     2    2    3 1
     3    3    4 1
     4    4    8 1
     5    4    5 1
     6    5    6 1
     7    6    7 1
     8    7    8 1
     9    1    9 1
    10    1   10 1
    11    1   11 1
    12    2   12 1
    13    2   13 1
    14    3   14 1
    15    3   15 1
    16    4   16 1
    17    5   17 1
    18    5   18 1
    19    6   19 1
    20    6   20 1
    21    7   21 1
    22    7   22 1
    23    8   23 1
    24    8   24 1
