@<TRIPOS>MOLECULE
2-methylbutan-2-ol
   18    17     0     0     0
SMALL
USER_CHARGES

@<TRIPOS>ATOM
      1 C1         -0.6454    0.3354    0.8029 C.3       1 MOL        -0.0891
      2 C2         -1.8896    1.0450    0.2809 C.3       1 MOL        -0.1056
      3 C3         -2.8429    0.1483   -0.5334 C.3       1 MOL         0.1489
      4 C4         -2.1689   -0.4444   -1.7717 C.3       1 MOL        -0.1030
      5 C5         -4.0814    0.9472   -0.9518 C.3       1 MOL        -0.1030
      6 O1         -3.2783   -0.9433    0.2800 O.3       1 MOL        -0.5983
      7 H1         -0.0247    1.0390    1.3675 H         1 MOL         0.0379
      8 H2         -0.0351   -0.0571   -0.0154 H         1 MOL         0.0379
      9 H3         -0.9063   -0.4913    1.4706 H         1 MOL         0.0379
     10 H4         -1.5798    1.9073   -0.3223 H         1 MOL         0.0405
     11 H5         -2.4272    1.4407    1.1525 H         1 MOL         0.0405
     12 H6         -2.8566   -1.0786   -2.3402 H         1 MOL         0.0432
     13 H7         -1.7843    0.3393   -2.4328 H         1 MOL         0.0432
     14 H8         -1.2989   -1.0484   -1.4878 H         1 MOL         0.0432
     15 H9         -4.7785    0.3350   -1.5331 H         1 MOL         0.0432
     16 H10        -4.6091    1.3378   -0.0743 H         1 MOL         0.0432
     17 H11        -3.8000    1.8185   -1.5544 H         1 MOL         0.0432
     18 H12        -3.7333   -0.5517    1.0402 H         1 MOL         0.3962
@<TRIPOS>BOND
     1    1    2 1
     2    2    3 1
     3    3    4 1
     4    3    5 1
     5    3    6 1
     6    1    7 1
     7    1    8 1
     8    1    9 1
     9    2   10 1
    10    2   11 1
    11    4   12 1
    12    4   13 1
    13    4   14 1
    14    5   15 1
    15    5   16 1
    16    5   17 1
    17    6   18 1
