@<TRIPOS>MOLECULE
pentanenitrile
   15    14     0     0     0
SMALL
USER_CHARGES

@<TRIPOS>ATOM
      1 C1          0.1082    0.9366    0.5559 C.3       1 MOL        -0.0932
      2 C2          0.2523    0.6526    2.0425 C.3       1 MOL        -0.0807
      3 C3          0.4020    1.9434    2.8476 C.3       1 MOL        -0.0793
      4 C4          0.5466    1.6542    4.3415 C.3       1 MOL        -0.0219
      5 C5          0.6900    2.8984    5.1090 C.1       1 MOL         0.2103
      6 N1          0.8025    3.8802    5.7171 N.1       1 MOL        -0.3768
      7 H1          0.0017    0.0069   -0.0123 H         1 MOL         0.0367
      8 H2         -0.7791    1.5504    0.3717 H         1 MOL         0.0367
      9 H3          0.9803    1.4761    0.1729 H         1 MOL         0.0367
     10 H4         -0.6267    0.0970    2.3895 H         1 MOL         0.0407
     11 H5          1.1262    0.0104    2.2025 H         1 MOL         0.0407
     12 H6         -0.4709    2.5868    2.6771 H         1 MOL         0.0523
     13 H7          1.2780    2.5004    2.4909 H         1 MOL         0.0523
     14 H8         -0.3302    1.1031    4.7006 H         1 MOL         0.0726
     15 H9          1.4209    1.0160    4.5142 H         1 MOL         0.0726
@<TRIPOS>BOND
     1    1    2 1
     2    2    3 1
     3    3    4 1
     4    4    5 1
     5    5    6 3
     6    1    7 1
     7    1    8 1
     8    1    9 1
     9    2   10 1
    10    2   11 1
    11    3   12 1
    12    3   13 1
    13    4   14 1
    14    4   15 1
