@<TRIPOS>MOLECULE
(1R,2R,3S,5R,6S,7S)-1,3,5,7,8,9,10,10-octachloro-tricyclo[5.2.1.0^{2,6}]dec-8-ene
   24    26     0     0     0
SMALL
USER_CHARGES

@<TRIPOS>ATOM
      1 C1         -0.2997   -1.4426    2.4939 C.3       1 MOL        -0.0997
      2 C2         -1.2518   -0.2959    2.1933 C.3       1 MOL         0.0550
      3 H1         -2.2672   -0.6704    2.3794 H         1 MOL         0.0755
      4 C3         -1.1662    0.0243    0.6880 C.3       1 MOL        -0.0681
      5 H2         -2.2107    0.0899    0.3451 H         1 MOL         0.0828
      6 C4         -0.4911   -1.2618    0.0253 C.3       1 MOL        -0.0681
      7 H3         -1.2377   -1.7632   -0.6110 H         1 MOL         0.0828
      8 C5         -0.2358   -2.2316    1.1959 C.3       1 MOL         0.0550
      9 H4         -1.0775   -2.9364    1.2120 H         1 MOL         0.0755
     10 Cl1         1.2030   -3.2528    1.1288 Cl        1 MOL        -0.1430
     11 C6          0.5871   -0.6139   -0.9255 C.3       1 MOL         0.0891
     12 C7         -0.2607    0.0641   -2.0025 C.2       1 MOL        -0.0447
     13 C8         -0.8265    1.1426   -1.4470 C.2       1 MOL        -0.0447
     14 C9         -0.3659    1.2018    0.0100 C.3       1 MOL         0.0891
     15 C10         1.0817    0.6677   -0.1936 C.3       1 MOL         0.1391
     16 Cl2         2.0341    0.4100    1.2778 Cl        1 MOL        -0.0868
     17 Cl3         2.1256    1.7471   -1.2253 Cl        1 MOL        -0.0868
     18 Cl4        -0.4803    2.8001    0.7196 Cl        1 MOL        -0.0580
     19 Cl5        -1.9508    2.2014   -2.1446 Cl        1 MOL        -0.0029
     20 Cl6        -0.5075   -0.5513   -3.5620 Cl        1 MOL        -0.0029
     21 Cl7         1.8516   -1.6422   -1.5695 Cl        1 MOL        -0.0580
     22 Cl8        -1.0467    1.0332    3.3374 Cl        1 MOL        -0.1430
     23 H5         -0.6912   -2.0670    3.3071 H         1 MOL         0.0814
     24 H6          0.6796   -1.1042    2.8348 H         1 MOL         0.0814
@<TRIPOS>BOND
     1    1    8 1
     2    1    2 1
     3    2    3 1
     4    2    4 1
     5    4    5 1
     6    4   14 1
     7    4    6 1
     8    6    7 1
     9    6    8 1
    10    8    9 1
    11    8   10 1
    12    6   11 1
    13   11   15 1
    14   11   12 1
    15   12   13 2
    16   13   14 1
    17   14   15 1
    18   15   16 1
    19   15   17 1
    20   14   18 1
    21   13   19 1
    22   12   20 1
    23   11   21 1
    24    2   22 1
    25    1   23 1
    26    1   24 1
