@<TRIPOS>MOLECULE
1-chloro-2-methyl-benzene
   15    15     0     0     0
SMALL
USER_CHARGES

@<TRIPOS>ATOM
      1 C1          1.9686   -1.0344   -1.6047 C.3       1 MOL        -0.0588
      2 C2          1.8851   -1.0363   -0.1124 C.ar      1 MOL        -0.0654
      3 C3          2.9210   -1.6309    0.6081 C.ar      1 MOL        -0.1254
      4 C4          2.8783   -1.6520    2.0022 C.ar      1 MOL        -0.1251
      5 C5          1.7997   -1.0786    2.6757 C.ar      1 MOL        -0.1272
      6 C6          0.7638   -0.4841    1.9551 C.ar      1 MOL        -0.1214
      7 C7          0.8066   -0.4630    0.5610 C.ar      1 MOL         0.0159
      8 Cl1        -0.4929    0.2817   -0.2968 Cl        1 MOL        -0.0987
      9 H1          2.4860   -0.1339   -1.9496 H         1 MOL         0.0511
     10 H2          2.5100   -1.9145   -1.9671 H         1 MOL         0.0511
     11 H3          0.9694   -1.0620   -2.0521 H         1 MOL         0.0511
     12 H4          3.7670   -2.0787    0.0934 H         1 MOL         0.1361
     13 H5          3.6862   -2.1128    2.5630 H         1 MOL         0.1350
     14 H6          1.7692   -1.0923    3.7613 H         1 MOL         0.1359
     15 H7         -0.0684   -0.0399    2.4953 H         1 MOL         0.1458
@<TRIPOS>BOND
     1    1    2 1
     2    2    7 ar
     3    2    3 ar
     4    3    4 ar
     5    4    5 ar
     6    5    6 ar
     7    6    7 ar
     8    7    8 1
     9    1    9 1
    10    1   10 1
    11    1   11 1
    12    3   12 1
    13    4   13 1
    14    5   14 1
    15    6   15 1
