@<TRIPOS>MOLECULE
chloroethylene
    6     5     0     0     0
SMALL
USER_CHARGES

@<TRIPOS>ATOM
      1 C1          0.6579    0.2535   -0.2291 C.2       1 MOL        -0.2174
      2 C2         -0.4830   -0.3390    0.1212 C.2       1 MOL        -0.0640
      3 Cl1        -0.8307   -1.9798   -0.2212 Cl        1 MOL        -0.1242
      4 H1          0.8550    1.2953   -0.0006 H         1 MOL         0.1288
      5 H2          1.4236   -0.3036   -0.7578 H         1 MOL         0.1288
      6 H3         -1.2837    0.1613    0.6486 H         1 MOL         0.1480
@<TRIPOS>BOND
     1    1    2 2
     2    2    3 1
     3    1    4 1
     4    1    5 1
     5    2    6 1
