@<TRIPOS>MOLECULE
diethoxy-(4-nitrophenoxy)-thioxo-$l^{5}-phosphane
   32    32     0     0     0
SMALL
USER_CHARGES

@<TRIPOS>ATOM
      1 C1          1.6467    1.0966   -0.1441 C.3       1 MOL        -0.1223
      2 C2          0.4356    0.4916   -0.8214 C.3       1 MOL         0.1576
      3 O1          0.8703   -0.4092   -1.8262 O.3       1 MOL        -0.5466
      4 P1         -0.2256   -1.2121   -2.7243 P.3       1 MOL         1.2301
      5 S1         -1.4493   -2.3693   -1.7408 S.2       1 MOL        -0.5576
      6 O2          0.7376   -1.9141   -3.8319 O.3       1 MOL        -0.5466
      7 C3          1.7524   -2.8116   -3.4151 C.3       1 MOL         0.1576
      8 C4          2.4967   -3.3179   -4.6331 C.3       1 MOL        -0.1223
      9 O3         -0.8843    0.0037   -3.5707 O.3       1 MOL        -0.4653
     10 C5         -1.8823   -0.0999   -4.5018 C.ar      1 MOL         0.1703
     11 C6         -2.0132   -1.2654   -5.2569 C.ar      1 MOL        -0.1400
     12 C7         -3.0302   -1.3712   -6.2057 C.ar      1 MOL        -0.0514
     13 C8         -3.9162   -0.3115   -6.3995 C.ar      1 MOL        -0.1747
     14 C9         -3.7853    0.8541   -5.6444 C.ar      1 MOL        -0.0514
     15 C10        -2.7683    0.9598   -4.6956 C.ar      1 MOL        -0.1400
     16 N1         -4.9514   -0.4193   -7.3654 N.pl3     1 MOL         0.3149
     17 O4         -5.7379    0.5455   -7.5240 O.2       1 MOL        -0.2023
     18 O5         -5.0514   -1.4764   -8.0340 O.3       1 MOL        -0.2023
     19 H1          1.3460    1.7984    0.6388 H         1 MOL         0.0568
     20 H2          2.2701    0.3148    0.3023 H         1 MOL         0.0568
     21 H3          2.2716    1.6253   -0.8714 H         1 MOL         0.0568
     22 H4         -0.1734    1.2721   -1.2873 H         1 MOL         0.0654
     23 H5         -0.1757   -0.0558   -0.0977 H         1 MOL         0.0654
     24 H6          2.4359   -2.2857   -2.7406 H         1 MOL         0.0654
     25 H7          1.2898   -3.6445   -2.8758 H         1 MOL         0.0654
     26 H8          3.2891   -4.0149   -4.3462 H         1 MOL         0.0568
     27 H9          1.8114   -3.8251   -5.3201 H         1 MOL         0.0568
     28 H10         2.9425   -2.4844   -5.1860 H         1 MOL         0.0568
     29 H11        -1.3259   -2.0942   -5.1107 H         1 MOL         0.1657
     30 H12        -3.1206   -2.2851   -6.7877 H         1 MOL         0.1792
     31 H13        -4.4693    1.6873   -5.7850 H         1 MOL         0.1792
     32 H14        -2.6714    1.8701   -4.1102 H         1 MOL         0.1657
@<TRIPOS>BOND
     1    1    2 1
     2    2    3 1
     3    3    4 1
     4    4    5 2
     5    4    6 1
     6    6    7 1
     7    7    8 1
     8    4    9 1
     9    9   10 1
    10   10   15 ar
    11   10   11 ar
    12   11   12 ar
    13   12   13 ar
    14   13   14 ar
    15   14   15 ar
    16   13   16 1
    17   16   17 2
    18   16   18 1
    19    1   19 1
    20    1   20 1
    21    1   21 1
    22    2   22 1
    23    2   23 1
    24    7   24 1
    25    7   25 1
    26    8   26 1
    27    8   27 1
    28    8   28 1
    29   11   29 1
    30   12   30 1
    31   14   31 1
    32   15   32 1
