@<TRIPOS>MOLECULE
1-iodohexane
   20    19     0     0     0
SMALL
USER_CHARGES

@<TRIPOS>ATOM
      1 C1          0.1789    1.6251   -2.7503 C.3       1 MOL        -0.0924
      2 C2         -0.5265    1.1632   -1.4853 C.3       1 MOL        -0.0800
      3 C3          0.3544    0.2211   -0.6651 C.3       1 MOL        -0.0798
      4 C4         -0.3595   -0.2414    0.6074 C.3       1 MOL        -0.0790
      5 C5          0.5265   -1.1859    1.4274 C.3       1 MOL        -0.0767
      6 C6         -0.1420   -1.6779    2.7121 C.3       1 MOL         0.0691
      7 I1          1.1153   -2.9926    3.8352 I         1 MOL        -0.2544
      8 H1         -0.4587    2.2990   -3.3314 H         1 MOL         0.0338
      9 H2          0.4280    0.7656   -3.3806 H         1 MOL         0.0338
     10 H3          1.1083    2.1518   -2.5113 H         1 MOL         0.0338
     11 H4         -0.7960    2.0391   -0.8837 H         1 MOL         0.0384
     12 H5         -1.4599    0.6573   -1.7583 H         1 MOL         0.0384
     13 H6          1.2881    0.7307   -0.3977 H         1 MOL         0.0409
     14 H7          0.6245   -0.6510   -1.2730 H         1 MOL         0.0409
     15 H8         -1.2903   -0.7549    0.3375 H         1 MOL         0.0420
     16 H9         -0.6355    0.6357    1.2026 H         1 MOL         0.0420
     17 H10         1.4858   -0.7031    1.6501 H         1 MOL         0.0534
     18 H11         0.7545   -2.0641    0.8097 H         1 MOL         0.0534
     19 H12        -0.4507   -0.8294    3.3324 H         1 MOL         0.0712
     20 H13        -1.0533   -2.2259    2.4462 H         1 MOL         0.0712
@<TRIPOS>BOND
     1    1    2 1
     2    2    3 1
     3    3    4 1
     4    4    5 1
     5    5    6 1
     6    6    7 1
     7    1    8 1
     8    1    9 1
     9    1   10 1
    10    2   11 1
    11    2   12 1
    12    3   13 1
    13    3   14 1
    14    4   15 1
    15    4   16 1
    16    5   17 1
    17    5   18 1
    18    6   19 1
    19    6   20 1
