@<TRIPOS>MOLECULE
1-methylpiperazine
   19    19     0     0     0
SMALL
USER_CHARGES

@<TRIPOS>ATOM
      1 C1         -0.1859   -2.0442    4.0765 C.3       1 MOL         0.1522
      2 N1         -0.4223   -2.1203    2.6363 N.3       1 MOL        -0.7236
      3 C2         -0.0739   -0.8523    1.9823 C.3       1 MOL         0.1635
      4 C3         -0.3124   -0.9378    0.4727 C.3       1 MOL         0.1619
      5 N2          0.4337   -2.0438   -0.1317 N.3       1 MOL        -0.8199
      6 C4          0.0898   -3.3035    0.5317 C.3       1 MOL         0.1619
      7 C5          0.3304   -3.2322    2.0417 C.3       1 MOL         0.1635
      8 H1         -0.7513   -1.2134    4.5067 H         1 MOL         0.0322
      9 H2          0.8774   -1.8875    4.2772 H         1 MOL         0.0322
     10 H3         -0.5009   -2.9724    4.5608 H         1 MOL         0.0322
     11 H4         -0.6951   -0.0434    2.3853 H         1 MOL         0.0370
     12 H5          0.9746   -0.5879    2.1757 H         1 MOL         0.0370
     13 H6         -1.3838   -1.0514    0.2639 H         1 MOL         0.0334
     14 H7          0.0065    0.0001    0.0047 H         1 MOL         0.0334
     15 H8          0.2056   -2.1071   -1.1232 H         1 MOL         0.3624
     16 H9         -0.9568   -3.5614    0.3254 H         1 MOL         0.0334
     17 H10         0.7055   -4.1041    0.1074 H         1 MOL         0.0334
     18 H11         0.0083   -4.1802    2.4891 H         1 MOL         0.0370
     19 H12         1.4058   -3.1253    2.2389 H         1 MOL         0.0370
@<TRIPOS>BOND
     1    1    2 1
     2    2    7 1
     3    2    3 1
     4    3    4 1
     5    4    5 1
     6    5    6 1
     7    6    7 1
     8    1    8 1
     9    1    9 1
    10    1   10 1
    11    3   11 1
    12    3   12 1
    13    4   13 1
    14    4   14 1
    15    5   15 1
    16    6   16 1
    17    6   17 1
    18    7   18 1
    19    7   19 1
