@<TRIPOS>MOLECULE
prop-1-ene
    9     8     0     0     0
SMALL
USER_CHARGES

@<TRIPOS>ATOM
      1 C1          0.8797   -1.4501    2.1744 C.3       1 MOL        -0.0692
      2 C2          1.3491   -1.4450    0.7582 C.2       1 MOL        -0.1643
      3 C3          0.8212   -0.6789   -0.2025 C.2       1 MOL        -0.2271
      4 H1          0.0904   -2.1971    2.3030 H         1 MOL         0.0410
      5 H2          0.4830   -0.4778    2.4828 H         1 MOL         0.0410
      6 H3          1.7086   -1.7073    2.8408 H         1 MOL         0.0410
      7 H4          2.1710   -2.1092    0.5059 H         1 MOL         0.1169
      8 H5          1.2086   -0.7222   -1.2145 H         1 MOL         0.1103
      9 H6          0.0000    0.0000    0.0000 H         1 MOL         0.1103
@<TRIPOS>BOND
     1    1    2 1
     2    2    3 2
     3    1    4 1
     4    1    5 1
     5    1    6 1
     6    2    7 1
     7    3    8 1
     8    3    9 1
