@<TRIPOS>MOLECULE
2-nitropropane
   13    12     0     0     0
SMALL
USER_CHARGES

@<TRIPOS>ATOM
      1 C1         -0.5137   -0.3855    0.8876 C.3       1 MOL        -0.1147
      2 C2          0.4302   -0.4776    2.0742 C.3       1 MOL        -0.0469
      3 C3          1.0239    0.8723    2.4396 C.3       1 MOL        -0.1147
      4 N1          1.5275   -1.3832    1.7191 N.pl3     1 MOL         0.2205
      5 O1          2.2374   -1.0799    0.7405 O.2       1 MOL        -0.2121
      6 O2          1.6796   -2.4144    2.4025 O.3       1 MOL        -0.2121
      7 H1         -0.9302   -1.3671    0.6407 H         1 MOL         0.0634
      8 H2         -1.3446    0.2985    1.0928 H         1 MOL         0.0634
      9 H3          0.0128   -0.0056    0.0055 H         1 MOL         0.0634
     10 H4         -0.0924   -0.9028    2.9373 H         1 MOL         0.1000
     11 H5          1.6992    0.7763    3.2965 H         1 MOL         0.0634
     12 H6          0.2382    1.5877    2.7020 H         1 MOL         0.0634
     13 H7          1.6053    1.2888    1.6096 H         1 MOL         0.0634
@<TRIPOS>BOND
     1    1    2 1
     2    2    3 1
     3    2    4 1
     4    4    5 2
     5    4    6 1
     6    1    7 1
     7    1    8 1
     8    1    9 1
     9    2   10 1
    10    3   11 1
    11    3   12 1
    12    3   13 1
