@<TRIPOS>MOLECULE
pyridine-4-carbaldehyde
   13    13     0     0     0
SMALL
USER_CHARGES

@<TRIPOS>ATOM
      1 C1          0.2265   -0.4197    0.9733 C.ar      1 MOL        -0.1987
      2 C2         -0.6317   -1.3224    1.5803 C.ar      1 MOL         0.3833
      3 N1         -0.4092   -1.8816    2.7908 N.ar      1 MOL        -0.6421
      4 C3          0.7299   -1.5161    3.4206 C.ar      1 MOL         0.3833
      5 C4          1.6520   -0.6227    2.8997 C.ar      1 MOL        -0.1987
      6 C5          1.3879   -0.0684    1.6522 C.ar      1 MOL        -0.1588
      7 C6          2.3223    0.8750    1.0600 C.2       1 MOL         0.5731
      8 O1          2.1427    1.3998   -0.0427 O.2       1 MOL        -0.5130
      9 H1         -0.0108   -0.0052   -0.0008 H         1 MOL         0.1550
     10 H2         -1.5513   -1.6283    1.0929 H         1 MOL         0.0282
     11 H3          0.8894   -1.9765    4.3899 H         1 MOL         0.0282
     12 H4          2.5483   -0.3695    3.4560 H         1 MOL         0.1550
     13 H5          3.2368    1.1235    1.6419 H         1 MOL         0.0049
@<TRIPOS>BOND
     1    1    6 ar
     2    1    2 ar
     3    2    3 ar
     4    3    4 ar
     5    4    5 ar
     6    5    6 ar
     7    6    7 1
     8    7    8 2
     9    1    9 1
    10    2   10 1
    11    4   11 1
    12    5   12 1
    13    7   13 1
