@<TRIPOS>MOLECULE
N3,N3-diethyl-2,4-dinitro-6-(trifluoromethyl)benzene-1,3-diamine
   35    35     0     0     0
SMALL
USER_CHARGES

@<TRIPOS>ATOM
      1 C1          3.6923   -0.3907   -3.0851 C.3       1 MOL        -0.1238
      2 C2          2.5598    0.0883   -2.2421 C.3       1 MOL         0.2395
      3 N1          1.9317   -1.0162   -1.5284 N.pl3     1 MOL        -0.7979
      4 C3          1.3651   -2.1063   -2.3124 C.3       1 MOL         0.2395
      5 C4          0.2925   -1.5997   -3.2033 C.3       1 MOL        -0.1238
      6 C5          1.8851   -1.0363   -0.1124 C.ar      1 MOL         0.3572
      7 C6          2.9210   -1.6309    0.6081 C.ar      1 MOL        -0.2455
      8 C7          2.8783   -1.6520    2.0022 C.ar      1 MOL         0.0384
      9 C8          1.7997   -1.0786    2.6757 C.ar      1 MOL        -0.2767
     10 C9          0.7638   -0.4841    1.9551 C.ar      1 MOL         0.3272
     11 C10         0.8066   -0.4630    0.5610 C.ar      1 MOL        -0.2813
     12 N2         -0.2537    0.1450   -0.1760 N.pl3     1 MOL         0.3202
     13 O1         -0.1703    1.3618   -0.4555 O.2       1 MOL        -0.1881
     14 O2         -1.2296   -0.5599   -0.5169 O.3       1 MOL        -0.1881
     15 N3         -0.3269    0.0944    2.6477 N.pl3     1 MOL        -0.8491
     16 C11         1.7825   -1.1166    4.1696 C.3       1 MOL         0.6972
     17 F1          2.8721   -1.7347    4.7110 F         1 MOL        -0.2313
     18 F2          1.7493    0.1205    4.7446 F         1 MOL        -0.2313
     19 F3          0.6987   -1.7816    4.6624 F         1 MOL        -0.2313
     20 N4          4.0348   -2.2238   -0.0509 N.pl3     1 MOL         0.3265
     21 O3          5.0375   -1.5149   -0.2998 O.2       1 MOL        -0.1873
     22 O4          3.9777   -3.4363   -0.3619 O.3       1 MOL        -0.1873
     23 H1          4.1613    0.4425   -3.6195 H         1 MOL         0.0488
     24 H2          4.4466   -0.8979   -2.4737 H         1 MOL         0.0488
     25 H3          3.3239   -1.1057   -3.8305 H         1 MOL         0.0488
     26 H4          1.7940    0.5633   -2.8626 H         1 MOL         0.0518
     27 H5          2.9084    0.8105   -1.4980 H         1 MOL         0.0518
     28 H6          2.1836   -2.5400   -2.8832 H         1 MOL         0.0518
     29 H7          0.9854   -2.8377   -1.6023 H         1 MOL         0.0518
     30 H8         -0.1435   -2.4085   -3.7997 H         1 MOL         0.0488
     31 H9         -0.4999   -1.1066   -2.6297 H         1 MOL         0.0488
     32 H10         0.7192   -0.8627   -3.8942 H         1 MOL         0.0488
     33 H11         3.6843   -2.1150    2.5680 H         1 MOL         0.1806
     34 H12        -1.0388    0.5583    2.1255 H         1 MOL         0.4581
     35 H13        -0.3123    0.1082    3.6449 H         1 MOL         0.4581
@<TRIPOS>BOND
     1    1    2 1
     2    2    3 1
     3    3    4 1
     4    4    5 1
     5    3    6 1
     6    6   11 ar
     7    6    7 ar
     8    7    8 ar
     9    8    9 ar
    10    9   10 ar
    11   10   11 ar
    12   11   12 1
    13   12   13 2
    14   12   14 1
    15   10   15 1
    16    9   16 1
    17   16   17 1
    18   16   18 1
    19   16   19 1
    20    7   20 1
    21   20   21 2
    22   20   22 1
    23    1   23 1
    24    1   24 1
    25    1   25 1
    26    2   26 1
    27    2   27 1
    28    4   28 1
    29    4   29 1
    30    5   30 1
    31    5   31 1
    32    5   32 1
    33    8   33 1
    34   15   34 1
    35   15   35 1
