@<TRIPOS>MOLECULE
anthracene
   24    26     0     0     0
SMALL
USER_CHARGES

@<TRIPOS>ATOM
      1 C1          1.1582    1.7944   -0.2577 C.ar      1 MOL        -0.1266
      2 C2         -0.0270    1.0691   -0.1893 C.ar      1 MOL        -0.1264
      3 C3         -1.2510    1.7151   -0.3642 C.ar      1 MOL        -0.1179
      4 C4         -1.3047    3.0972   -0.6099 C.ar      1 MOL        -0.0335
      5 C5         -2.5292    3.7624   -0.7882 C.ar      1 MOL        -0.1065
      6 C6         -2.5821    5.1446   -1.0340 C.ar      1 MOL        -0.0335
      7 C7         -3.8061    5.8105   -1.2124 C.ar      1 MOL        -0.1179
      8 C8         -3.8419    7.1837   -1.4556 C.ar      1 MOL        -0.1264
      9 C9         -2.6567    7.9090   -1.5237 C.ar      1 MOL        -0.1264
     10 C10        -1.4327    7.2630   -1.3489 C.ar      1 MOL        -0.1179
     11 C11        -1.3790    5.8808   -1.1032 C.ar      1 MOL        -0.0335
     12 C12        -0.1545    5.2157   -0.9250 C.ar      1 MOL        -0.1065
     13 C13        -0.1017    3.8335   -0.6793 C.ar      1 MOL        -0.0335
     14 C14         1.1224    3.1676   -0.5010 C.ar      1 MOL        -0.1179
     15 H1          2.1117    1.2921   -0.1217 H         1 MOL         0.1324
     16 H2          0.0002    0.0001   -0.0001 H         1 MOL         0.1324
     17 H3         -2.1654    1.1283   -0.3069 H         1 MOL         0.1317
     18 H4         -3.4580    3.1941   -0.7348 H         1 MOL         0.1340
     19 H5         -4.7452    5.2632   -1.1629 H         1 MOL         0.1317
     20 H6         -4.7950    7.6863   -1.5917 H         1 MOL         0.1324
     21 H7         -2.6833    8.9782   -1.7129 H         1 MOL         0.1324
     22 H8         -0.5183    7.8499   -1.4065 H         1 MOL         0.1317
     23 H9          0.7741    5.7841   -0.9784 H         1 MOL         0.1340
     24 H10         2.0617    3.7147   -0.5502 H         1 MOL         0.1317
@<TRIPOS>BOND
     1    1   14 ar
     2    1    2 ar
     3    2    3 ar
     4    3    4 ar
     5    4   13 ar
     6    4    5 ar
     7    5    6 ar
     8    6   11 ar
     9    6    7 ar
    10    7    8 ar
    11    8    9 ar
    12    9   10 ar
    13   10   11 ar
    14   11   12 ar
    15   12   13 ar
    16   13   14 ar
    17    1   15 1
    18    2   16 1
    19    3   17 1
    20    5   18 1
    21    7   19 1
    22    8   20 1
    23    9   21 1
    24   10   22 1
    25   12   23 1
    26   14   24 1
