@<TRIPOS>MOLECULE
1-acetoxyethyl acetate
   20    19     0     0     0
SMALL
USER_CHARGES

@<TRIPOS>ATOM
      1 C1          1.7138   -3.2985   -2.9814 C.3       1 MOL        -0.1570
      2 C2          1.6575   -3.3148   -1.4604 C.3       1 MOL         0.3661
      3 O1          1.3892   -1.9629   -1.0325 O.3       1 MOL        -0.4367
      4 C3          1.2992   -1.7612    0.3129 C.2       1 MOL         0.6462
      5 O2          1.4232   -2.6102    1.1851 O.2       1 MOL        -0.5412
      6 C4          1.0171   -0.3146    0.5840 C.3       1 MOL        -0.1515
      7 O3          2.9236   -3.7759   -0.9490 O.3       1 MOL        -0.4367
      8 C5          3.1458   -5.1207   -0.9507 C.2       1 MOL         0.6462
      9 O4          2.3763   -5.9865   -1.3444 O.2       1 MOL        -0.5412
     10 C6          4.5063   -5.4017   -0.3887 C.3       1 MOL        -0.1515
     11 H1          1.9155   -4.2997   -3.3752 H         1 MOL         0.0684
     12 H2          2.4814   -2.6089   -3.3453 H         1 MOL         0.0684
     13 H3          0.7547   -2.9696   -3.3973 H         1 MOL         0.0684
     14 H4          0.8356   -3.9590   -1.1225 H         1 MOL         0.0794
     15 H5         -0.0625   -0.1462    0.6119 H         1 MOL         0.0788
     16 H6          1.4782   -0.0179    1.5295 H         1 MOL         0.0788
     17 H7          1.4433    0.2944   -0.2184 H         1 MOL         0.0788
     18 H8          4.4393   -5.5390    0.6933 H         1 MOL         0.0788
     19 H9          4.9282   -6.2902   -0.8651 H         1 MOL         0.0788
     20 H10         5.1650   -4.5525   -0.5921 H         1 MOL         0.0788
@<TRIPOS>BOND
     1    1    2 1
     2    2    3 1
     3    3    4 1
     4    4    5 2
     5    4    6 1
     6    2    7 1
     7    7    8 1
     8    8    9 2
     9    8   10 1
    10    1   11 1
    11    1   12 1
    12    1   13 1
    13    2   14 1
    14    6   15 1
    15    6   16 1
    16    6   17 1
    17   10   18 1
    18   10   19 1
    19   10   20 1
