@<TRIPOS>MOLECULE
3-methylpentane
   20    19     0     0     0
SMALL
USER_CHARGES

@<TRIPOS>ATOM
      1 C1          0.3894   -0.9603   -0.3921 C.3       1 MOL        -0.0914
      2 C2         -0.7741   -1.8070   -0.8892 C.3       1 MOL        -0.0772
      3 C3         -0.3423   -3.0436   -1.7051 C.3       1 MOL        -0.0646
      4 C4          0.5423   -3.9826   -0.8792 C.3       1 MOL        -0.0897
      5 C5         -1.6015   -3.7656   -2.2290 C.3       1 MOL        -0.0772
      6 C6         -1.3001   -5.0094   -3.0538 C.3       1 MOL        -0.0914
      7 H1          0.0324   -0.0978    0.1793 H         1 MOL         0.0329
      8 H2          1.0330   -1.5568    0.2629 H         1 MOL         0.0329
      9 H3          1.0082   -0.5994   -1.2183 H         1 MOL         0.0329
     10 H4         -1.4098   -1.1686   -1.5155 H         1 MOL         0.0372
     11 H5         -1.3854   -2.1162   -0.0324 H         1 MOL         0.0372
     12 H6          0.2398   -2.6982   -2.5696 H         1 MOL         0.0449
     13 H7          0.8445   -4.8573   -1.4646 H         1 MOL         0.0335
     14 H8          0.0231   -4.3360    0.0165 H         1 MOL         0.0335
     15 H9          1.4481   -3.4762   -0.5327 H         1 MOL         0.0335
     16 H10        -2.2540   -4.0396   -1.3910 H         1 MOL         0.0372
     17 H11        -2.1738   -3.0749   -2.8609 H         1 MOL         0.0372
     18 H12        -2.2345   -5.4693   -3.3917 H         1 MOL         0.0329
     19 H13        -0.7586   -5.7594   -2.4705 H         1 MOL         0.0329
     20 H14        -0.7065   -4.7602   -3.9390 H         1 MOL         0.0329
@<TRIPOS>BOND
     1    1    2 1
     2    2    3 1
     3    3    4 1
     4    3    5 1
     5    5    6 1
     6    1    7 1
     7    1    8 1
     8    1    9 1
     9    2   10 1
    10    2   11 1
    11    3   12 1
    12    4   13 1
    13    4   14 1
    14    4   15 1
    15    5   16 1
    16    5   17 1
    17    6   18 1
    18    6   19 1
    19    6   20 1
