@<TRIPOS>MOLECULE
hexanal
   19    18     0     0     0
SMALL
USER_CHARGES

@<TRIPOS>ATOM
      1 C1         -0.6593   -0.8243    2.6572 C.3       1 MOL        -0.0923
      2 C2         -0.0529    0.2129    1.7256 C.3       1 MOL        -0.0800
      3 C3         -0.3082   -0.1341    0.2585 C.3       1 MOL        -0.0782
      4 C4          0.3053    0.9146   -0.6744 C.3       1 MOL        -0.0755
      5 C5          0.0667    0.5951   -2.1477 C.3       1 MOL        -0.1962
      6 C6          0.6582    1.6088   -3.0996 C.2       1 MOL         0.5630
      7 O1          1.2801    2.6100   -2.7618 O.2       1 MOL        -0.5241
      8 H1         -0.4649   -0.5565    3.7005 H         1 MOL         0.0333
      9 H2         -0.2295   -1.8143    2.4748 H         1 MOL         0.0333
     10 H3         -1.7434   -0.8891    2.5196 H         1 MOL         0.0333
     11 H4          1.0257    0.2754    1.9108 H         1 MOL         0.0408
     12 H5         -0.4795    1.1959    1.9559 H         1 MOL         0.0408
     13 H6         -1.3886   -0.1955    0.0797 H         1 MOL         0.0372
     14 H7          0.1099   -1.1237    0.0415 H         1 MOL         0.0372
     15 H8          1.3796    1.0083   -0.4750 H         1 MOL         0.0533
     16 H9         -0.1466    1.8894   -0.4539 H         1 MOL         0.0533
     17 H10         0.4739   -0.3890   -2.4028 H         1 MOL         0.0662
     18 H11        -1.0109    0.5729   -2.3452 H         1 MOL         0.0662
     19 H12         0.4746    1.4020   -4.1683 H         1 MOL        -0.0116
@<TRIPOS>BOND
     1    1    2 1
     2    2    3 1
     3    3    4 1
     4    4    5 1
     5    5    6 1
     6    6    7 2
     7    1    8 1
     8    1    9 1
     9    1   10 1
    10    2   11 1
    11    2   12 1
    12    3   13 1
    13    3   14 1
    14    4   15 1
    15    4   16 1
    16    5   17 1
    17    5   18 1
    18    6   19 1
