@<TRIPOS>MOLECULE
(1R,2S)-1,2-dimethylcyclohexane
   24    24     0     0     0
SMALL
USER_CHARGES

@<TRIPOS>ATOM
      1 C1          3.4435   -1.0419    2.0543 C.3       1 MOL        -0.0883
      2 C2          2.0172   -1.4136    2.4777 C.3       1 MOL        -0.0581
      3 H1          2.0555   -2.4522    2.8339 H         1 MOL         0.0421
      4 C3          1.0623   -1.3797    1.2712 C.3       1 MOL        -0.0732
      5 C4          0.7402    0.0391    0.8075 C.3       1 MOL        -0.0753
      6 C5          0.2013    0.8940    1.9491 C.3       1 MOL        -0.0753
      7 C6          1.1337    0.8902    3.1576 C.3       1 MOL        -0.0732
      8 C7          1.4552   -0.5381    3.6246 C.3       1 MOL        -0.0581
      9 H2          0.5091   -0.9982    3.9443 H         1 MOL         0.0421
     10 C8          2.3663   -0.5074    4.8525 C.3       1 MOL        -0.0883
     11 H3          3.4791   -0.0123    1.6860 H         1 MOL         0.0335
     12 H4          4.1309   -1.1289    2.9010 H         1 MOL         0.0335
     13 H5          3.7929   -1.7050    1.2572 H         1 MOL         0.0335
     14 H6          1.4835   -1.9523    0.4364 H         1 MOL         0.0382
     15 H7          0.1255   -1.8809    1.5481 H         1 MOL         0.0382
     16 H8          1.6374    0.5087    0.3877 H         1 MOL         0.0379
     17 H9          0.0001   -0.0000   -0.0000 H         1 MOL         0.0379
     18 H10         0.0526    1.9226    1.6014 H         1 MOL         0.0379
     19 H11        -0.7834    0.5160    2.2509 H         1 MOL         0.0379
     20 H12         2.0571    1.4266    2.9073 H         1 MOL         0.0382
     21 H13         0.6604    1.4497    3.9738 H         1 MOL         0.0382
     22 H14         2.5858   -1.5240    5.1723 H         1 MOL         0.0335
     23 H15         1.8720    0.0243    5.6630 H         1 MOL         0.0335
     24 H16         3.2970   -0.0003    4.6063 H         1 MOL         0.0335
@<TRIPOS>BOND
     1    1    2 1
     2    2    3 1
     3    2    8 1
     4    2    4 1
     5    4    5 1
     6    5    6 1
     7    6    7 1
     8    7    8 1
     9    8    9 1
    10    8   10 1
    11    1   11 1
    12    1   12 1
    13    1   13 1
    14    4   14 1
    15    4   15 1
    16    5   16 1
    17    5   17 1
    18    6   18 1
    19    6   19 1
    20    7   20 1
    21    7   21 1
    22   10   22 1
    23   10   23 1
    24   10   24 1
