@<TRIPOS>MOLECULE
1-iodoheptane
   23    22     0     0     0
SMALL
USER_CHARGES

@<TRIPOS>ATOM
      1 C1         -2.0823   -3.4991    0.1638 C.3       1 MOL        -0.0922
      2 C2         -0.8646   -2.6051    0.3406 C.3       1 MOL        -0.0801
      3 C3         -1.0579   -1.1921   -0.2142 C.3       1 MOL        -0.0787
      4 C4          0.1697   -0.2964   -0.0340 C.3       1 MOL        -0.0788
      5 C5         -0.0768    1.1021   -0.6048 C.3       1 MOL        -0.0799
      6 C6          1.1492    2.0006   -0.4262 C.3       1 MOL        -0.0766
      7 C7          0.8981    3.3954   -0.9976 C.3       1 MOL         0.0688
      8 I1          2.6195    4.6375   -0.7403 I         1 MOL        -0.2541
      9 H1         -1.9083   -4.4992    0.5711 H         1 MOL         0.0332
     10 H2         -2.9599   -3.0708    0.6580 H         1 MOL         0.0332
     11 H3         -2.3139   -3.6112   -0.9003 H         1 MOL         0.0332
     12 H4         -0.0156   -3.0676   -0.1769 H         1 MOL         0.0386
     13 H5         -0.5992   -2.5560    1.4031 H         1 MOL         0.0386
     14 H6         -1.9292   -0.7264    0.2621 H         1 MOL         0.0395
     15 H7         -1.2886   -1.2732   -1.2835 H         1 MOL         0.0395
     16 H8          1.0330   -0.7505   -0.5352 H         1 MOL         0.0411
     17 H9          0.4187   -0.2101    1.0297 H         1 MOL         0.0411
     18 H10        -0.9407    1.5556   -0.1036 H         1 MOL         0.0415
     19 H11        -0.3237    1.0261   -1.6708 H         1 MOL         0.0415
     20 H12         2.0125    1.5411   -0.9239 H         1 MOL         0.0536
     21 H13         1.3958    2.0713    0.6406 H         1 MOL         0.0536
     22 H14         0.0398    3.8577   -0.4975 H         1 MOL         0.0717
     23 H15         0.6569    3.3269   -2.0643 H         1 MOL         0.0717
@<TRIPOS>BOND
     1    1    2 1
     2    2    3 1
     3    3    4 1
     4    4    5 1
     5    5    6 1
     6    6    7 1
     7    7    8 1
     8    1    9 1
     9    1   10 1
    10    1   11 1
    11    2   12 1
    12    2   13 1
    13    3   14 1
    14    3   15 1
    15    4   16 1
    16    4   17 1
    17    5   18 1
    18    5   19 1
    19    6   20 1
    20    6   21 1
    21    7   22 1
    22    7   23 1
