@<TRIPOS>MOLECULE
9H-fluorene
   23    25     0     0     0
SMALL
USER_CHARGES

@<TRIPOS>ATOM
      1 C1         -4.9623   -4.0685    3.8307 C.ar      1 MOL        -0.1263
      2 C2         -4.9953   -2.6694    3.7012 C.ar      1 MOL        -0.1331
      3 C3         -4.0207   -1.9924    2.9616 C.ar      1 MOL        -0.1033
      4 C4         -3.0204   -2.7368    2.3589 C.ar      1 MOL        -0.0411
      5 C5         -2.9927   -4.1432    2.4926 C.ar      1 MOL        -0.0843
      6 C6         -3.9541   -4.8192    3.2231 C.ar      1 MOL        -0.1180
      7 C7         -1.8090   -4.7234    1.7471 C.3       1 MOL         0.0043
      8 C8         -1.1657   -3.4785    1.1727 C.ar      1 MOL        -0.0843
      9 C9         -1.8953   -2.3274    1.5461 C.ar      1 MOL        -0.0411
     10 C10        -1.4873   -1.0707    1.1313 C.ar      1 MOL        -0.1033
     11 C11        -0.3400   -0.9756    0.3377 C.ar      1 MOL        -0.1331
     12 C12         0.3814   -2.1243   -0.0305 C.ar      1 MOL        -0.1263
     13 C13        -0.0296   -3.3912    0.3874 C.ar      1 MOL        -0.1180
     14 H1         -5.7317   -4.5705    4.4113 H         1 MOL         0.1308
     15 H2         -5.7900   -2.1067    4.1841 H         1 MOL         0.1303
     16 H3         -4.0588   -0.9119    2.8720 H         1 MOL         0.1359
     17 H4         -3.9295   -5.8986    3.3243 H         1 MOL         0.1341
     18 H5         -1.1268   -5.2289    2.4367 H         1 MOL         0.0729
     19 H6         -2.1436   -5.3909    0.9478 H         1 MOL         0.0729
     20 H7         -2.0333   -0.1748    1.4077 H         1 MOL         0.1359
     21 H8         -0.0002   -0.0000   -0.0000 H         1 MOL         0.1303
     22 H9          1.2701   -2.0229   -0.6477 H         1 MOL         0.1308
     23 H10         0.5284   -4.2765    0.1031 H         1 MOL         0.1341
@<TRIPOS>BOND
     1    1    6 ar
     2    1    2 ar
     3    2    3 ar
     4    3    4 ar
     5    4    9 1
     6    4    5 ar
     7    5    6 ar
     8    5    7 1
     9    7    8 1
    10    8   13 ar
    11    8    9 ar
    12    9   10 ar
    13   10   11 ar
    14   11   12 ar
    15   12   13 ar
    16    1   14 1
    17    2   15 1
    18    3   16 1
    19    6   17 1
    20    7   18 1
    21    7   19 1
    22   10   20 1
    23   11   21 1
    24   12   22 1
    25   13   23 1
