@<TRIPOS>MOLECULE
[(1S)-1-methylpropyl] nitrate
   17    16     0     0     0
SMALL
USER_CHARGES

@<TRIPOS>ATOM
      1 C1          0.9784   -0.0326   -0.2360 C.3       1 MOL        -0.0900
      2 C2          1.4098    0.6794   -1.5114 C.3       1 MOL        -0.1226
      3 C3          0.6395    0.1877   -2.7386 C.3       1 MOL         0.1612
      4 H1          0.8085   -0.8858   -2.8804 H         1 MOL         0.0972
      5 C4          1.0608    0.9421   -3.9925 C.3       1 MOL        -0.1285
      6 O1         -0.7550    0.3897   -2.5267 O.3       1 MOL        -0.3657
      7 N1         -1.5759   -0.4132   -3.3641 N.pl3     1 MOL         0.3722
      8 O2         -1.0159   -1.1731   -4.1577 O.2       1 MOL        -0.1779
      9 O3         -2.7782   -0.2285   -3.1707 O.3       1 MOL        -0.1779
     10 H2          1.5425    0.3354    0.6270 H         1 MOL         0.0423
     11 H3          1.1302   -1.1138   -0.3115 H         1 MOL         0.0423
     12 H4         -0.0850    0.1451   -0.0463 H         1 MOL         0.0423
     13 H5          2.4847    0.5237   -1.6590 H         1 MOL         0.0612
     14 H6          1.2456    1.7551   -1.3741 H         1 MOL         0.0612
     15 H7          0.5068    0.5869   -4.8686 H         1 MOL         0.0609
     16 H8          0.8954    2.0183   -3.8841 H         1 MOL         0.0609
     17 H9          2.1225    0.7735   -4.2027 H         1 MOL         0.0609
@<TRIPOS>BOND
     1    1    2 1
     2    2    3 1
     3    3    4 1
     4    3    5 1
     5    3    6 1
     6    6    7 1
     7    7    8 2
     8    7    9 1
     9    1   10 1
    10    1   11 1
    11    1   12 1
    12    2   13 1
    13    2   14 1
    14    5   15 1
    15    5   16 1
    16    5   17 1
