@<TRIPOS>MOLECULE
N4-tert-butyl-N2-ethyl-6-methylsulfanyl-1,3,5-triazine-2,4-diamine
   35    35     0     0     0
SMALL
USER_CHARGES

@<TRIPOS>ATOM
      1 C1          5.1453   -5.1551    2.0501 C.3       1 MOL        -0.1273
      2 C2          4.0577   -4.1758    2.3342 C.3       1 MOL         0.2050
      3 N1          3.4771   -4.4053    3.6359 N.pl3     1 MOL        -0.8324
      4 C3          2.4259   -3.6304    4.1729 C.ar      1 MOL         0.9073
      5 N2          1.9606   -2.6308    3.4062 N.ar      1 MOL        -0.8306
      6 C4          0.9636   -1.9388    3.9806 C.ar      1 MOL         0.8919
      7 N3          0.4295   -2.1598    5.1926 N.ar      1 MOL        -0.7606
      8 C5          0.9937   -3.1897    5.8437 C.ar      1 MOL         0.7822
      9 N4          1.9930   -3.9682    5.3983 N.ar      1 MOL        -0.7671
     10 S1          0.3518   -3.5615    7.4627 S.3       1 MOL        -0.2354
     11 C6          0.6914   -1.9924    8.2908 C.3       1 MOL        -0.0653
     12 N5          0.4313   -0.8895    3.2486 N.pl3     1 MOL        -0.7936
     13 C7          0.8921   -0.5159    1.9237 C.3       1 MOL         0.2098
     14 C8          0.7041   -1.7005    0.9690 C.3       1 MOL        -0.1055
     15 C9          0.0763    0.6833    1.4294 C.3       1 MOL        -0.1055
     16 C10         2.3771   -0.1411    1.9908 C.3       1 MOL        -0.1055
     17 H1          5.5829   -4.9773    1.0617 H         1 MOL         0.0447
     18 H2          5.9325   -5.0953    2.8095 H         1 MOL         0.0447
     19 H3          4.7400   -6.1740    2.0618 H         1 MOL         0.0447
     20 H4          3.2587   -4.2642    1.5919 H         1 MOL         0.0622
     21 H5          4.4431   -3.1521    2.3169 H         1 MOL         0.0622
     22 H6          3.8447   -5.1670    4.1951 H         1 MOL         0.4409
     23 H7          0.3523   -2.0409    9.3276 H         1 MOL         0.0749
     24 H8          0.1650   -1.1840    7.7792 H         1 MOL         0.0749
     25 H9          1.7643   -1.7905    8.2727 H         1 MOL         0.0749
     26 H10        -0.3220   -0.3509    3.6616 H         1 MOL         0.3990
     27 H11         1.0432   -1.4513   -0.0432 H         1 MOL         0.0455
     28 H12         1.2674   -2.5777    1.3061 H         1 MOL         0.0455
     29 H13        -0.3521   -1.9851    0.8959 H         1 MOL         0.0455
     30 H14         0.3976    0.9944    0.4285 H         1 MOL         0.0455
     31 H15         0.2016    1.5471    2.0926 H         1 MOL         0.0455
     32 H16        -0.9924    0.4466    1.3821 H         1 MOL         0.0455
     33 H17         2.7568    0.1468    1.0035 H         1 MOL         0.0455
     34 H18         2.5464    0.6975    2.6753 H         1 MOL         0.0455
     35 H19         2.9836   -0.9860    2.3372 H         1 MOL         0.0455
@<TRIPOS>BOND
     1    1    2 1
     2    2    3 1
     3    3    4 1
     4    4    9 ar
     5    4    5 ar
     6    5    6 ar
     7    6    7 ar
     8    7    8 ar
     9    8    9 ar
    10    8   10 1
    11   10   11 1
    12    6   12 1
    13   12   13 1
    14   13   14 1
    15   13   15 1
    16   13   16 1
    17    1   17 1
    18    1   18 1
    19    1   19 1
    20    2   20 1
    21    2   21 1
    22    3   22 1
    23   11   23 1
    24   11   24 1
    25   11   25 1
    26   12   26 1
    27   14   27 1
    28   14   28 1
    29   14   29 1
    30   15   30 1
    31   15   31 1
    32   15   32 1
    33   16   33 1
    34   16   34 1
    35   16   35 1
