@<TRIPOS>MOLECULE
octan-2-one
   25    24     0     0     0
SMALL
USER_CHARGES

@<TRIPOS>ATOM
      1 C1         -5.2341    4.0322    0.5471 C.3       1 MOL        -0.0917
      2 C2         -3.8026    4.0093    0.0356 C.3       1 MOL        -0.0799
      3 C3         -3.5023    2.7214   -0.7309 C.3       1 MOL        -0.0789
      4 C4         -2.0608    2.7023   -1.2439 C.3       1 MOL        -0.0769
      5 C5         -1.7622    1.4114   -2.0114 C.3       1 MOL        -0.0749
      6 C6         -0.3309    1.3615   -2.5367 C.3       1 MOL        -0.1787
      7 C7         -0.0236    0.0878   -3.2983 C.2       1 MOL         0.5616
      8 O1         -0.8767   -0.7869   -3.4499 O.2       1 MOL        -0.5335
      9 C8          1.3582   -0.0606   -3.8790 C.3       1 MOL        -0.2034
     10 H1         -5.4402    4.9575    1.0944 H         1 MOL         0.0335
     11 H2         -5.4254    3.1872    1.2161 H         1 MOL         0.0335
     12 H3         -5.9369    3.9689   -0.2896 H         1 MOL         0.0335
     13 H4         -3.6393    4.8764   -0.6147 H         1 MOL         0.0371
     14 H5         -3.1159    4.1064    0.8844 H         1 MOL         0.0371
     15 H6         -3.6709    1.8569   -0.0772 H         1 MOL         0.0414
     16 H7         -4.1948    2.6274   -1.5764 H         1 MOL         0.0414
     17 H8         -1.3735    2.8005   -0.3954 H         1 MOL         0.0366
     18 H9         -1.8928    3.5660   -1.8987 H         1 MOL         0.0366
     19 H10        -1.9618    0.5466   -1.3681 H         1 MOL         0.0541
     20 H11        -2.4467    1.3354   -2.8652 H         1 MOL         0.0541
     21 H12        -0.1465    2.2063   -3.2101 H         1 MOL         0.0633
     22 H13         0.3842    1.4548   -1.7110 H         1 MOL         0.0633
     23 H14         2.0126   -0.5418   -3.1466 H         1 MOL         0.0636
     24 H15         1.3180   -0.6768   -4.7797 H         1 MOL         0.0636
     25 H16         1.7691    0.9247   -4.1124 H         1 MOL         0.0636
@<TRIPOS>BOND
     1    1    2 1
     2    2    3 1
     3    3    4 1
     4    4    5 1
     5    5    6 1
     6    6    7 1
     7    7    8 2
     8    7    9 1
     9    1   10 1
    10    1   11 1
    11    1   12 1
    12    2   13 1
    13    2   14 1
    14    3   15 1
    15    3   16 1
    16    4   17 1
    17    4   18 1
    18    5   19 1
    19    5   20 1
    20    6   21 1
    21    6   22 1
    22    9   23 1
    23    9   24 1
    24    9   25 1
