@<TRIPOS>MOLECULE
diethoxymethoxybenzene
   30    30     0     0     0
SMALL
USER_CHARGES

@<TRIPOS>ATOM
      1 C1          1.8748    0.7025    0.6558 C.3       1 MOL        -0.1107
      2 C2          0.3668    0.6215    0.7617 C.3       1 MOL         0.1405
      3 O1         -0.1706    1.9379    0.7371 O.3       1 MOL        -0.4424
      4 C3         -1.6086    1.9688    0.8331 C.3       1 MOL         0.5095
      5 O2         -2.2391    1.2639   -0.2461 O.3       1 MOL        -0.4424
      6 C4         -2.2962    2.0351   -1.4391 C.3       1 MOL         0.1405
      7 C5         -2.9727    1.2194   -2.5192 C.3       1 MOL        -0.1107
      8 O3         -2.0314    1.4740    2.1154 O.3       1 MOL        -0.3446
      9 C6         -3.3712    1.4281    2.3908 C.ar      1 MOL         0.1000
     10 C7         -4.2350    2.3556    1.8082 C.ar      1 MOL        -0.1480
     11 C8         -5.6005    2.3088    2.0886 C.ar      1 MOL        -0.1155
     12 C9         -6.1023    1.3346    2.9516 C.ar      1 MOL        -0.1415
     13 C10        -5.2385    0.4071    3.5342 C.ar      1 MOL        -0.1155
     14 C11        -3.8729    0.4539    3.2538 C.ar      1 MOL        -0.1480
     15 H1          2.3212   -0.2957    0.6717 H         1 MOL         0.0485
     16 H2          2.1702    1.2071   -0.2700 H         1 MOL         0.0485
     17 H3          2.2888    1.2879    1.4834 H         1 MOL         0.0485
     18 H4          0.0733    0.1385    1.6984 H         1 MOL         0.0373
     19 H5         -0.0473    0.0560   -0.0784 H         1 MOL         0.0373
     20 H6         -1.8654    3.0342    0.7774 H         1 MOL         0.0938
     21 H7         -2.8595    2.9504   -1.2380 H         1 MOL         0.0373
     22 H8         -1.2771    2.2975   -1.7358 H         1 MOL         0.0373
     23 H9         -3.0332    1.7850   -3.4532 H         1 MOL         0.0485
     24 H10        -2.4234    0.2903   -2.7034 H         1 MOL         0.0485
     25 H11        -3.9848    0.9353   -2.2122 H         1 MOL         0.0485
     26 H12        -3.8501    3.1163    1.1345 H         1 MOL         0.1463
     27 H13        -6.2734    3.0303    1.6344 H         1 MOL         0.1344
     28 H14        -7.1657    1.2969    3.1688 H         1 MOL         0.1332
     29 H15        -5.6297   -0.3519    4.2057 H         1 MOL         0.1344
     30 H16        -3.2050   -0.2711    3.7107 H         1 MOL         0.1463
@<TRIPOS>BOND
     1    1    2 1
     2    2    3 1
     3    3    4 1
     4    4    5 1
     5    5    6 1
     6    6    7 1
     7    4    8 1
     8    8    9 1
     9    9   14 ar
    10    9   10 ar
    11   10   11 ar
    12   11   12 ar
    13   12   13 ar
    14   13   14 ar
    15    1   15 1
    16    1   16 1
    17    1   17 1
    18    2   18 1
    19    2   19 1
    20    4   20 1
    21    6   21 1
    22    6   22 1
    23    7   23 1
    24    7   24 1
    25    7   25 1
    26   10   26 1
    27   11   27 1
    28   12   28 1
    29   13   29 1
    30   14   30 1
