@<TRIPOS>MOLECULE
N-methylmethanamine
   10     9     0     0     0
SMALL
USER_CHARGES

@<TRIPOS>ATOM
      1 C1          1.0277    0.1348    0.3510 C.3       1 MOL         0.1475
      2 N1          1.0302    0.2824    1.8002 N.3       1 MOL        -0.8225
      3 C2          2.3857    0.4585    2.3034 C.3       1 MOL         0.1475
      4 H1          0.0049    0.0037   -0.0116 H         1 MOL         0.0284
      5 H2          1.6192   -0.7372    0.0589 H         1 MOL         0.0284
      6 H3          1.4570    1.0232   -0.1201 H         1 MOL         0.0284
      7 H4          0.6209   -0.5503    2.2229 H         1 MOL         0.3571
      8 H5          2.3534    0.5655    3.3843 H         1 MOL         0.0284
      9 H6          2.8201    1.3502    1.8591 H         1 MOL         0.0284
     10 H7          2.9824   -0.4102    2.0381 H         1 MOL         0.0284
@<TRIPOS>BOND
     1    1    2 1
     2    2    3 1
     3    1    4 1
     4    1    5 1
     5    1    6 1
     6    2    7 1
     7    3    8 1
     8    3    9 1
     9    3   10 1
