@<TRIPOS>MOLECULE
anisole
   16    16     0     0     0
SMALL
USER_CHARGES

@<TRIPOS>ATOM
      1 C1          0.8349   -0.3917   -2.1375 C.3       1 MOL         0.1101
      2 O1          1.9270   -1.0156   -1.4726 O.3       1 MOL        -0.3237
      3 C2          1.8851   -1.0363   -0.1124 C.ar      1 MOL         0.1193
      4 C3          2.9210   -1.6309    0.6081 C.ar      1 MOL        -0.1791
      5 C4          2.8783   -1.6520    2.0022 C.ar      1 MOL        -0.0985
      6 C5          1.7997   -1.0786    2.6757 C.ar      1 MOL        -0.1635
      7 C6          0.7638   -0.4841    1.9551 C.ar      1 MOL        -0.0985
      8 C7          0.8066   -0.4630    0.5610 C.ar      1 MOL        -0.1791
      9 H1          0.9887   -0.4417   -3.2183 H         1 MOL         0.0440
     10 H2          0.7595    0.6506   -1.8173 H         1 MOL         0.0440
     11 H3         -0.0868   -0.9180   -1.8782 H         1 MOL         0.0440
     12 H4          3.7642   -2.0784    0.0892 H         1 MOL         0.1422
     13 H5          3.6852   -2.1140    2.5634 H         1 MOL         0.1318
     14 H6          1.7671   -1.0935    3.7610 H         1 MOL         0.1329
     15 H7         -0.0756   -0.0370    2.4799 H         1 MOL         0.1318
     16 H8         -0.0034    0.0014    0.0052 H         1 MOL         0.1422
@<TRIPOS>BOND
     1    1    2 1
     2    2    3 1
     3    3    8 ar
     4    3    4 ar
     5    4    5 ar
     6    5    6 ar
     7    6    7 ar
     8    7    8 ar
     9    1    9 1
    10    1   10 1
    11    1   11 1
    12    4   12 1
    13    5   13 1
    14    6   14 1
    15    7   15 1
    16    8   16 1
