@<TRIPOS>MOLECULE
chlorobenzene
   12    12     0     0     0
SMALL
USER_CHARGES

@<TRIPOS>ATOM
      1 C1          1.8851   -1.0363   -0.1124 C.ar      1 MOL        -0.1294
      2 C2          2.9210   -1.6309    0.6081 C.ar      1 MOL        -0.1218
      3 C3          2.8783   -1.6520    2.0022 C.ar      1 MOL        -0.1245
      4 C4          1.7997   -1.0786    2.6757 C.ar      1 MOL         0.0177
      5 C5          0.7638   -0.4841    1.9551 C.ar      1 MOL        -0.1245
      6 C6          0.8066   -0.4630    0.5610 C.ar      1 MOL        -0.1218
      7 Cl1         1.7476   -1.1039    4.3957 Cl        1 MOL        -0.0973
      8 H1          1.9184   -1.0200   -1.1979 H         1 MOL         0.1353
      9 H2          3.7607   -2.0771    0.0834 H         1 MOL         0.1367
     10 H3          3.6929   -2.1190    2.5501 H         1 MOL         0.1465
     11 H4         -0.0833   -0.0334    2.4660 H         1 MOL         0.1465
     12 H5          0.0002   -0.0001   -0.0003 H         1 MOL         0.1367
@<TRIPOS>BOND
     1    1    6 ar
     2    1    2 ar
     3    2    3 ar
     4    3    4 ar
     5    4    5 ar
     6    5    6 ar
     7    4    7 1
     8    1    8 1
     9    2    9 1
    10    3   10 1
    11    5   11 1
    12    6   12 1
