@<TRIPOS>MOLECULE
methylsulfanylethane
   12    11     0     0     0
SMALL
USER_CHARGES

@<TRIPOS>ATOM
      1 C1          0.4412   -0.3496    0.9395 C.3       1 MOL        -0.0810
      2 C2          1.8518   -0.8681    0.7340 C.3       1 MOL        -0.0136
      3 S1          2.9258    0.4446    0.0921 S.3       1 MOL        -0.2943
      4 C3          4.4613   -0.5024   -0.0229 C.3       1 MOL        -0.0401
      5 H1         -0.2216   -1.1305    1.3274 H         1 MOL         0.0450
      6 H2          0.4213    0.4995    1.6311 H         1 MOL         0.0450
      7 H3          0.0269   -0.0085   -0.0151 H         1 MOL         0.0450
      8 H4          1.8501   -1.7008    0.0240 H         1 MOL         0.0545
      9 H5          2.2645   -1.2294    1.6807 H         1 MOL         0.0545
     10 H6          5.2601    0.1363   -0.4043 H         1 MOL         0.0617
     11 H7          4.3223   -1.3469   -0.7004 H         1 MOL         0.0617
     12 H8          4.7384   -0.8747    0.9650 H         1 MOL         0.0617
@<TRIPOS>BOND
     1    1    2 1
     2    2    3 1
     3    3    4 1
     4    1    5 1
     5    1    6 1
     6    1    7 1
     7    2    8 1
     8    2    9 1
     9    4   10 1
    10    4   11 1
    11    4   12 1
