@<TRIPOS>MOLECULE
prop-1-yne
    7     6     0     0     0
SMALL
USER_CHARGES

@<TRIPOS>ATOM
      1 C1         -0.7150    0.3705   -0.7408 C.3       1 MOL        -0.0221
      2 C2         -0.6484    1.8276   -0.8449 C.1       1 MOL        -0.1393
      3 C3         -0.5942    3.0237   -0.9302 C.1       1 MOL        -0.1635
      4 H1          0.2427   -0.0835   -1.0131 H         1 MOL         0.0539
      5 H2         -0.9575    0.0639    0.2811 H         1 MOL         0.0539
      6 H3         -1.4831   -0.0329   -1.4075 H         1 MOL         0.0539
      7 H4         -0.5459    4.0849   -1.0060 H         1 MOL         0.1633
@<TRIPOS>BOND
     1    1    2 1
     2    2    3 3
     3    1    4 1
     4    1    5 1
     5    1    6 1
     6    3    7 1
