@<TRIPOS>MOLECULE
1-cyclopropylethanone
   14    14     0     0     0
SMALL
USER_CHARGES

@<TRIPOS>ATOM
      1 C1          0.1358   -2.6141    1.3930 C.3       1 MOL        -0.1986
      2 C2         -0.8196   -1.5947    0.8341 C.2       1 MOL         0.5916
      3 O1         -2.0313   -1.8020    0.7904 O.2       1 MOL        -0.5275
      4 C3         -0.2350   -0.3431    0.3417 C.3       1 MOL        -0.2371
      5 C4          0.9244   -0.3973   -0.6165 C.3       1 MOL        -0.1154
      6 C5         -0.4244    0.0435   -1.1005 C.3       1 MOL        -0.1154
      7 H1          0.4731   -3.2774    0.5926 H         1 MOL         0.0640
      8 H2          0.9898   -2.1054    1.8468 H         1 MOL         0.0640
      9 H3         -0.3678   -3.2111    2.1582 H         1 MOL         0.0640
     10 H4         -0.2294    0.4669    1.0636 H         1 MOL         0.1053
     11 H5          1.7004    0.3541   -0.5362 H         1 MOL         0.0763
     12 H6          1.2772   -1.3736   -0.9259 H         1 MOL         0.0763
     13 H7         -0.5538    1.0909   -1.3449 H         1 MOL         0.0763
     14 H8         -0.9796   -0.6361   -1.7356 H         1 MOL         0.0763
@<TRIPOS>BOND
     1    1    2 1
     2    2    3 2
     3    2    4 1
     4    4    6 1
     5    4    5 1
     6    5    6 1
     7    1    7 1
     8    1    8 1
     9    1    9 1
    10    4   10 1
    11    5   11 1
    12    5   12 1
    13    6   13 1
    14    6   14 1
