@<TRIPOS>MOLECULE
2,6-dinitro-N,N-dipropyl-4-(trifluoromethyl)aniline
   39    39     0     0     0
SMALL
USER_CHARGES

@<TRIPOS>ATOM
      1 C1          3.4481    3.6057   -0.0289 C.3       1 MOL        -0.0907
      2 C2          3.6344    2.8445   -1.3338 C.3       1 MOL        -0.1090
      3 C3          2.6189    1.7221   -1.5111 C.3       1 MOL         0.2386
      4 N1          2.8015    1.0088   -2.7448 N.pl3     1 MOL        -0.7881
      5 C4          2.7100    1.7478   -4.0090 C.3       1 MOL         0.2386
      6 C5          1.3463    2.3797   -4.1792 C.3       1 MOL        -0.1090
      7 C6          1.2058    3.1582   -5.4796 C.3       1 MOL        -0.0907
      8 C7          3.0768   -0.3694   -2.7666 C.ar      1 MOL         0.3006
      9 C8          2.0293   -1.2892   -2.8160 C.ar      1 MOL        -0.1750
     10 C9          2.3025   -2.6568   -2.8375 C.ar      1 MOL        -0.0161
     11 C10         3.6232   -3.1047   -2.8095 C.ar      1 MOL        -0.1737
     12 C11         4.6707   -2.1849   -2.7601 C.ar      1 MOL        -0.0161
     13 C12         4.3975   -0.8172   -2.7386 C.ar      1 MOL        -0.1750
     14 N2          5.4869    0.0977   -2.6883 N.pl3     1 MOL         0.3186
     15 O1          5.9183    0.4629   -1.5700 O.2       1 MOL        -0.1787
     16 O2          5.9805    0.5096   -3.7639 O.3       1 MOL        -0.1787
     17 C13         3.9154   -4.5671   -2.8329 C.3       1 MOL         0.6953
     18 F1          2.7960   -5.3484   -2.8818 F         1 MOL        -0.2245
     19 F2          4.6686   -4.9570   -3.9036 F         1 MOL        -0.2245
     20 F3          4.6039   -4.9827   -1.7301 F         1 MOL        -0.2245
     21 N3          0.6716   -0.8624   -2.8461 N.pl3     1 MOL         0.3186
     22 O3          0.1266   -0.6582   -3.9558 O.2       1 MOL        -0.1787
     23 O4          0.0636   -0.7040   -1.7619 O.3       1 MOL        -0.1787
     24 H1          4.1909    4.4038    0.0690 H         1 MOL         0.0380
     25 H2          2.4540    4.0632    0.0016 H         1 MOL         0.0380
     26 H3          3.5385    2.9421    0.8366 H         1 MOL         0.0380
     27 H4          4.6428    2.4150   -1.3478 H         1 MOL         0.0534
     28 H5          3.5692    3.5471   -2.1730 H         1 MOL         0.0534
     29 H6          2.7219    0.9926   -0.7016 H         1 MOL         0.0532
     30 H7          1.5943    2.1068   -1.4947 H         1 MOL         0.0532
     31 H8          2.9059    1.0157   -4.7869 H         1 MOL         0.0532
     32 H9          3.5113    2.4801   -3.9925 H         1 MOL         0.0532
     33 H10         0.6013    1.5756   -4.1701 H         1 MOL         0.0534
     34 H11         1.1186    3.0427   -3.3361 H         1 MOL         0.0534
     35 H12         0.2078    3.5996   -5.5665 H         1 MOL         0.0380
     36 H13         1.9391    3.9703   -5.5134 H         1 MOL         0.0380
     37 H14         1.3759    2.5162   -6.3494 H         1 MOL         0.0380
     38 H15         1.4895   -3.3791   -2.8772 H         1 MOL         0.1836
     39 H16         5.6990   -2.5402   -2.7370 H         1 MOL         0.1836
@<TRIPOS>BOND
     1    1    2 1
     2    2    3 1
     3    3    4 1
     4    4    5 1
     5    5    6 1
     6    6    7 1
     7    4    8 1
     8    8   13 ar
     9    8    9 ar
    10    9   10 ar
    11   10   11 ar
    12   11   12 ar
    13   12   13 ar
    14   13   14 1
    15   14   15 2
    16   14   16 1
    17   11   17 1
    18   17   18 1
    19   17   19 1
    20   17   20 1
    21    9   21 1
    22   21   22 2
    23   21   23 1
    24    1   24 1
    25    1   25 1
    26    1   26 1
    27    2   27 1
    28    2   28 1
    29    3   29 1
    30    3   30 1
    31    5   31 1
    32    5   32 1
    33    6   33 1
    34    6   34 1
    35    7   35 1
    36    7   36 1
    37    7   37 1
    38   10   38 1
    39   12   39 1
