@<TRIPOS>MOLECULE
neopentane
   17    16     0     0     0
SMALL
USER_CHARGES

@<TRIPOS>ATOM
      1 C1         -0.6138   -0.1246    0.8990 C.3       1 MOL        -0.0849
      2 C2          0.2605   -0.3499    2.1409 C.3       1 MOL        -0.0596
      3 C3          1.1851    0.8592    2.3421 C.3       1 MOL        -0.0849
      4 C4          1.1078   -1.6156    1.9474 C.3       1 MOL        -0.0849
      5 C5         -0.6372   -0.5188    3.3750 C.3       1 MOL        -0.0849
      6 H1         -1.2862   -0.9729    0.7289 H         1 MOL         0.0333
      7 H2         -1.2316    0.7738    1.0075 H         1 MOL         0.0333
      8 H3          0.0000   -0.0004   -0.0001 H         1 MOL         0.0333
      9 H4          1.8231    0.7275    3.2232 H         1 MOL         0.0333
     10 H5          0.6080    1.7800    2.4832 H         1 MOL         0.0333
     11 H6          1.8396    1.0056    1.4756 H         1 MOL         0.0333
     12 H7          1.7442   -1.8033    2.8195 H         1 MOL         0.0333
     13 H8          0.4743   -2.4976    1.8010 H         1 MOL         0.0333
     14 H9          1.7605   -1.5250    1.0719 H         1 MOL         0.0333
     15 H10        -0.0405   -0.6817    4.2795 H         1 MOL         0.0333
     16 H11        -1.3101   -1.3760    3.2607 H         1 MOL         0.0333
     17 H12        -1.2556    0.3709    3.5395 H         1 MOL         0.0333
@<TRIPOS>BOND
     1    1    2 1
     2    2    3 1
     3    2    4 1
     4    2    5 1
     5    1    6 1
     6    1    7 1
     7    1    8 1
     8    3    9 1
     9    3   10 1
    10    3   11 1
    11    4   12 1
    12    4   13 1
    13    4   14 1
    14    5   15 1
    15    5   16 1
    16    5   17 1
