@<TRIPOS>MOLECULE
propanenitrile
    9     8     0     0     0
SMALL
USER_CHARGES

@<TRIPOS>ATOM
      1 C1          0.6419   -0.7484    0.4847 C.3       1 MOL        -0.0945
      2 C2          1.1888   -0.1853    1.7565 C.3       1 MOL        -0.0229
      3 C3          2.0234   -1.2467    2.3255 C.1       1 MOL         0.2097
      4 N1          2.6856   -2.0831    2.7823 N.1       1 MOL        -0.3762
      5 H1         -0.0054   -0.0292   -0.0308 H         1 MOL         0.0465
      6 H2          1.4707   -0.9824   -0.1975 H         1 MOL         0.0465
      7 H3          0.0945   -1.6824    0.6582 H         1 MOL         0.0465
      8 H4          0.3742    0.0817    2.4366 H         1 MOL         0.0721
      9 H5          1.7795    0.7130    1.5529 H         1 MOL         0.0721
@<TRIPOS>BOND
     1    1    2 1
     2    2    3 1
     3    3    4 3
     4    1    5 1
     5    1    6 1
     6    1    7 1
     7    2    8 1
     8    2    9 1
