@<TRIPOS>MOLECULE
3-hydroxybenzaldehyde
   15    15     0     0     0
SMALL
USER_CHARGES

@<TRIPOS>ATOM
      1 C1          1.8851   -1.0363   -0.1124 C.ar      1 MOL        -0.1066
      2 C2          2.9210   -1.6309    0.6081 C.ar      1 MOL        -0.1068
      3 C3          2.8783   -1.6520    2.0022 C.ar      1 MOL        -0.1646
      4 C4          1.7997   -1.0786    2.6757 C.ar      1 MOL        -0.1157
      5 C5          0.7638   -0.4841    1.9551 C.ar      1 MOL         0.1105
      6 C6          0.8066   -0.4630    0.5610 C.ar      1 MOL        -0.1836
      7 O1         -0.2884    0.0755    2.6123 O.3       1 MOL        -0.4968
      8 C7          3.9591   -2.2701    2.7539 C.2       1 MOL         0.5754
      9 O2          4.9402   -2.7922    2.2175 O.2       1 MOL        -0.5237
     10 H1          1.9186   -1.0197   -1.1978 H         1 MOL         0.1393
     11 H2          3.7567   -2.0750    0.0736 H         1 MOL         0.1575
     12 H3          1.7613   -1.0928    3.7626 H         1 MOL         0.1528
     13 H4          0.0023   -0.0020   -0.0059 H         1 MOL         0.1381
     14 H5         -0.9228    0.4458    1.9780 H         1 MOL         0.4216
     15 H6          3.8802   -2.2627    3.8629 H         1 MOL         0.0026
@<TRIPOS>BOND
     1    1    6 ar
     2    1    2 ar
     3    2    3 ar
     4    3    4 ar
     5    4    5 ar
     6    5    6 ar
     7    5    7 1
     8    3    8 1
     9    8    9 2
    10    1   10 1
    11    2   11 1
    12    4   12 1
    13    6   13 1
    14    7   14 1
    15    8   15 1
