@<TRIPOS>MOLECULE
N,N,4-trimethylbenzamide
   25    25     0     0     0
SMALL
USER_CHARGES

@<TRIPOS>ATOM
      1 C1          1.7464   -1.1742   -1.6533 C.3       1 MOL        -0.0587
      2 C2          1.7433   -1.1586   -0.1618 C.ar      1 MOL        -0.0631
      3 C3          2.8018   -1.7299    0.5444 C.ar      1 MOL        -0.1341
      4 C4          2.7983   -1.7152    1.9392 C.ar      1 MOL        -0.0965
      5 C5          1.7361   -1.1292    2.6278 C.ar      1 MOL        -0.1329
      6 C6          0.6775   -0.5579    1.9215 C.ar      1 MOL        -0.0965
      7 C7          0.6811   -0.5726    0.5267 C.ar      1 MOL        -0.1341
      8 C8          1.7325   -1.1141    4.0821 C.2       1 MOL         0.6724
      9 O1          1.2025   -2.0769    4.6523 O.2       1 MOL        -0.5925
     10 N1          2.3077   -0.0194    4.7531 N.am      1 MOL        -0.4837
     11 C9          2.3284    0.0755    6.2059 C.3       1 MOL         0.0836
     12 C10         2.9229    1.0960    4.0371 C.3       1 MOL         0.0836
     13 H1          2.2396   -0.2755   -2.0361 H         1 MOL         0.0469
     14 H2          2.2722   -2.0561   -2.0339 H         1 MOL         0.0469
     15 H3          0.7247   -1.2120   -2.0459 H         1 MOL         0.0469
     16 H4          3.6335   -2.1884    0.0161 H         1 MOL         0.1365
     17 H5          3.6279   -2.1634    2.4797 H         1 MOL         0.1415
     18 H6         -0.1550   -0.0988    2.4481 H         1 MOL         0.1415
     19 H7         -0.1479   -0.1251   -0.0153 H         1 MOL         0.1365
     20 H8          3.2372   -0.3876    6.5808 H         1 MOL         0.0426
     21 H9          1.4606   -0.4382    6.6117 H         1 MOL         0.0426
     22 H10         2.3028    1.1223    6.4977 H         1 MOL         0.0426
     23 H11         2.1672    1.8508    3.8459 H         1 MOL         0.0426
     24 H12         3.3299    0.7329    3.0988 H         1 MOL         0.0426
     25 H13         3.7175    1.5131    4.6474 H         1 MOL         0.0426
@<TRIPOS>BOND
     1    1    2 1
     2    2    7 ar
     3    2    3 ar
     4    3    4 ar
     5    4    5 ar
     6    5    6 ar
     7    6    7 ar
     8    5    8 1
     9    8    9 2
    10    8   10 am
    11   10   11 1
    12   10   12 1
    13    1   13 1
    14    1   14 1
    15    1   15 1
    16    3   16 1
    17    4   17 1
    18    6   18 1
    19    7   19 1
    20   11   20 1
    21   11   21 1
    22   11   22 1
    23   12   23 1
    24   12   24 1
    25   12   25 1
