@<TRIPOS>MOLECULE
2-methylthiophene
   12    12     0     0     0
SMALL
USER_CHARGES

@<TRIPOS>ATOM
      1 C1         -1.8295   -2.2094   -0.4535 C.3       1 MOL        -0.0244
      2 C2         -1.3504   -1.0945   -1.2990 C.2       1 MOL        -0.0947
      3 C3         -0.4682   -0.0882   -0.9718 C.2       1 MOL        -0.1583
      4 C4         -0.2528    0.8087   -2.0577 C.2       1 MOL        -0.1542
      5 C5         -0.9783    0.4538   -3.1737 C.2       1 MOL        -0.1661
      6 S1         -1.9146   -0.9556   -2.9098 S.3       1 MOL        -0.0156
      7 H1         -1.1678   -3.0740   -0.5638 H         1 MOL         0.0469
      8 H2         -1.8564   -1.9166    0.6013 H         1 MOL         0.0469
      9 H3         -2.8464   -2.5036   -0.7339 H         1 MOL         0.0469
     10 H4          0.0016    0.0052   -0.0008 H         1 MOL         0.1520
     11 H5          0.4002    1.6709   -2.0228 H         1 MOL         0.1514
     12 H6         -1.0031    0.9544   -4.1313 H         1 MOL         0.1692
@<TRIPOS>BOND
     1    1    2 1
     2    2    6 1
     3    2    3 2
     4    3    4 1
     5    4    5 2
     6    5    6 1
     7    1    7 1
     8    1    8 1
     9    1    9 1
    10    3   10 1
    11    4   11 1
    12    5   12 1
