@<TRIPOS>MOLECULE
formaldehyde
    4     3     0     0     0
SMALL
USER_CHARGES

@<TRIPOS>ATOM
      1 C1          0.0059    0.0101   -0.0041 C.2       1 MOL         0.5633
      2 O1         -0.5765   -0.9882    0.4011 O.2       1 MOL        -0.5148
      3 H1          0.0774    0.9322    0.5945 H         1 MOL        -0.0243
      4 H2          0.4933    0.0460   -0.9915 H         1 MOL        -0.0243
@<TRIPOS>BOND
     1    1    2 2
     2    1    3 1
     3    1    4 1
