@<TRIPOS>MOLECULE
2-chloro-1,1,1-trimethoxy-ethane
   20    19     0     0     0
SMALL
USER_CHARGES

@<TRIPOS>ATOM
      1 C1          0.0111    0.9021   -2.2285 C.3       1 MOL         0.1303
      2 O1          0.7431    0.9073   -1.0106 O.3       1 MOL        -0.4397
      3 C2          0.2965   -0.0354   -0.0108 C.3       1 MOL         0.5215
      4 C3          0.8466   -1.4411   -0.3399 C.3       1 MOL         0.0068
      5 Cl1         2.5312   -1.3873   -0.9314 Cl        1 MOL        -0.1444
      6 O2          0.8640    0.3174    1.2722 O.3       1 MOL        -0.4397
      7 C4          0.4989    1.6159    1.7228 C.3       1 MOL         0.1303
      8 O3         -1.1451   -0.0516    0.0426 O.3       1 MOL        -0.4397
      9 C5         -1.7227   -0.9400    0.9887 C.3       1 MOL         0.1303
     10 H1          0.4296    1.6474   -2.9093 H         1 MOL         0.0425
     11 H2         -1.0387    1.1279   -2.0247 H         1 MOL         0.0425
     12 H3          0.0869   -0.0878   -2.6846 H         1 MOL         0.0425
     13 H4          0.2444   -1.9462   -1.1007 H         1 MOL         0.0808
     14 H5          0.8606   -2.0794    0.5489 H         1 MOL         0.0808
     15 H6          0.9647    1.8038    2.6909 H         1 MOL         0.0425
     16 H7         -0.5872    1.6747    1.8059 H         1 MOL         0.0425
     17 H8          0.8519    2.3494    0.9972 H         1 MOL         0.0425
     18 H9         -2.8100   -0.8644    0.9369 H         1 MOL         0.0425
     19 H10        -1.3721   -0.6793    1.9888 H         1 MOL         0.0425
     20 H11        -1.4149   -1.9584    0.7469 H         1 MOL         0.0425
@<TRIPOS>BOND
     1    1    2 1
     2    2    3 1
     3    3    4 1
     4    4    5 1
     5    3    6 1
     6    6    7 1
     7    3    8 1
     8    8    9 1
     9    1   10 1
    10    1   11 1
    11    1   12 1
    12    4   13 1
    13    4   14 1
    14    7   15 1
    15    7   16 1
    16    7   17 1
    17    9   18 1
    18    9   19 1
    19    9   20 1
