@<TRIPOS>MOLECULE
nonanal
   28    27     0     0     0
SMALL
USER_CHARGES

@<TRIPOS>ATOM
      1 C1         -0.9117    4.8982    0.7780 C.3       1 MOL        -0.0922
      2 C2         -1.4575    3.4803    0.8530 C.3       1 MOL        -0.0796
      3 C3         -0.5027    2.4803    0.1998 C.3       1 MOL        -0.0792
      4 C4         -1.0077    1.0354    0.2493 C.3       1 MOL        -0.0772
      5 C5         -0.0524    0.0344   -0.4043 C.3       1 MOL        -0.0780
      6 C6         -0.6057   -1.3910   -0.3265 C.3       1 MOL        -0.0785
      7 C7          0.3501   -2.3938   -0.9806 C.3       1 MOL        -0.0738
      8 C8         -0.1751   -3.8255   -0.9186 C.3       1 MOL        -0.2000
      9 C9          0.7420   -4.8442   -1.5546 C.2       1 MOL         0.5640
     10 O1          1.8181   -4.5871   -2.0831 O.2       1 MOL        -0.5234
     11 H1         -1.5995    5.6091    1.2471 H         1 MOL         0.0331
     12 H2          0.0492    4.9623    1.2981 H         1 MOL         0.0331
     13 H3         -0.7568    5.2043   -0.2615 H         1 MOL         0.0331
     14 H4         -2.4331    3.4443    0.3550 H         1 MOL         0.0377
     15 H5         -1.6180    3.2228    1.9052 H         1 MOL         0.0377
     16 H6          0.4829    2.5421    0.6773 H         1 MOL         0.0394
     17 H7         -0.3607    2.7561   -0.8526 H         1 MOL         0.0394
     18 H8         -1.9758    0.9944   -0.2655 H         1 MOL         0.0384
     19 H9         -1.1923    0.7458    1.2911 H         1 MOL         0.0384
     20 H10         0.1070    0.3095   -1.4538 H         1 MOL         0.0418
     21 H11         0.9233    0.0663    0.0930 H         1 MOL         0.0418
     22 H12        -0.7734   -1.6581    0.7231 H         1 MOL         0.0371
     23 H13        -1.5797   -1.4336   -0.8291 H         1 MOL         0.0371
     24 H14         0.4822   -2.1187   -2.0342 H         1 MOL         0.0544
     25 H15         1.3375   -2.3308   -0.5077 H         1 MOL         0.0544
     26 H16        -0.3535   -4.1294    0.1182 H         1 MOL         0.0658
     27 H17        -1.1289   -3.8867   -1.4542 H         1 MOL         0.0658
     28 H18         0.3645   -5.8815   -1.5366 H         1 MOL        -0.0105
@<TRIPOS>BOND
     1    1    2 1
     2    2    3 1
     3    3    4 1
     4    4    5 1
     5    5    6 1
     6    6    7 1
     7    7    8 1
     8    8    9 1
     9    9   10 2
    10    1   11 1
    11    1   12 1
    12    1   13 1
    13    2   14 1
    14    2   15 1
    15    3   16 1
    16    3   17 1
    17    4   18 1
    18    4   19 1
    19    5   20 1
    20    5   21 1
    21    6   22 1
    22    6   23 1
    23    7   24 1
    24    7   25 1
    25    8   26 1
    26    8   27 1
    27    9   28 1
