@<TRIPOS>MOLECULE
propanal
   10     9     0     0     0
SMALL
USER_CHARGES

@<TRIPOS>ATOM
      1 C1          0.4289   -0.8128    0.5955 C.3       1 MOL        -0.0889
      2 C2         -0.6597   -1.6801    1.1974 C.3       1 MOL        -0.1985
      3 C3         -1.5416   -2.3179    0.1522 C.2       1 MOL         0.5617
      4 O1         -1.4121   -2.1668   -1.0578 O.2       1 MOL        -0.5229
      5 H1          1.0515   -0.3644    1.3768 H         1 MOL         0.0434
      6 H2         -0.0002    0.0010    0.0015 H         1 MOL         0.0434
      7 H3          1.0747   -1.4087   -0.0567 H         1 MOL         0.0434
      8 H4         -0.2139   -2.4828    1.7934 H         1 MOL         0.0652
      9 H5         -1.2989   -1.0801    1.8530 H         1 MOL         0.0652
     10 H6         -2.3474   -2.9578    0.5516 H         1 MOL        -0.0119
@<TRIPOS>BOND
     1    1    2 1
     2    2    3 1
     3    3    4 2
     4    1    5 1
     5    1    6 1
     6    1    7 1
     7    2    8 1
     8    2    9 1
     9    3   10 1
