@<TRIPOS>MOLECULE
styrene
   16    16     0     0     0
SMALL
USER_CHARGES

@<TRIPOS>ATOM
      1 C1          1.3832   -0.0584   -2.3275 C.2       1 MOL        -0.2088
      2 C2          1.9297   -1.0142   -1.5660 C.2       1 MOL        -0.1145
      3 C3          1.8851   -1.0363   -0.1124 C.ar      1 MOL        -0.0597
      4 C4          2.9210   -1.6309    0.6081 C.ar      1 MOL        -0.1191
      5 C5          2.8783   -1.6520    2.0022 C.ar      1 MOL        -0.1305
      6 C6          1.7997   -1.0786    2.6757 C.ar      1 MOL        -0.1278
      7 C7          0.7638   -0.4841    1.9551 C.ar      1 MOL        -0.1305
      8 C8          0.8066   -0.4630    0.5610 C.ar      1 MOL        -0.1191
      9 H1          1.4754   -0.1157   -3.4079 H         1 MOL         0.1140
     10 H2          0.8522    0.7982   -1.9296 H         1 MOL         0.1140
     11 H3          2.4658   -1.8133   -2.0739 H         1 MOL         0.1243
     12 H4          3.7685   -2.0819    0.0975 H         1 MOL         0.1325
     13 H5          3.6847   -2.1151    2.5634 H         1 MOL         0.1312
     14 H6          1.7663   -1.0951    3.7611 H         1 MOL         0.1304
     15 H7         -0.0759   -0.0376    2.4796 H         1 MOL         0.1312
     16 H8         -0.0085    0.0041    0.0133 H         1 MOL         0.1325
@<TRIPOS>BOND
     1    1    2 2
     2    2    3 1
     3    3    8 ar
     4    3    4 ar
     5    4    5 ar
     6    5    6 ar
     7    6    7 ar
     8    7    8 ar
     9    1    9 1
    10    1   10 1
    11    2   11 1
    12    4   12 1
    13    5   13 1
    14    6   14 1
    15    7   15 1
    16    8   16 1
