@<TRIPOS>MOLECULE
naphthalen-1-ol
   19    20     0     0     0
SMALL
USER_CHARGES

@<TRIPOS>ATOM
      1 C1         -0.4966   -2.0341    0.4940 C.ar      1 MOL        -0.1145
      2 C2          0.3500   -1.0275    0.0392 C.ar      1 MOL        -0.1420
      3 C3          1.6484   -1.3369   -0.3665 C.ar      1 MOL        -0.0913
      4 C4          2.1168   -2.6602   -0.3222 C.ar      1 MOL        -0.0541
      5 C5          1.2560   -3.6839    0.1403 C.ar      1 MOL        -0.0098
      6 C6         -0.0479   -3.3542    0.5448 C.ar      1 MOL        -0.1303
      7 C7          1.7243   -5.0072    0.1848 C.ar      1 MOL        -0.1533
      8 C8          3.0228   -5.3167   -0.2210 C.ar      1 MOL        -0.0887
      9 C9          3.8693   -4.3100   -0.6758 C.ar      1 MOL        -0.2303
     10 C10         3.4207   -2.9899   -0.7267 C.ar      1 MOL         0.1433
     11 O1          4.2871   -2.0364   -1.1801 O.3       1 MOL        -0.4986
     12 H1         -1.5073   -1.7925    0.8098 H         1 MOL         0.1324
     13 H2         -0.0002   -0.0000    0.0000 H         1 MOL         0.1335
     14 H3          2.2840   -0.5265   -0.7166 H         1 MOL         0.1486
     15 H4         -0.7269   -4.1249    0.9038 H         1 MOL         0.1331
     16 H5          1.0800   -5.8101    0.5368 H         1 MOL         0.1346
     17 H6          3.3726   -6.3442   -0.1817 H         1 MOL         0.1325
     18 H7          4.8792   -4.5596   -0.9901 H         1 MOL         0.1337
     19 H8          5.1352   -2.4429   -1.4130 H         1 MOL         0.4214
@<TRIPOS>BOND
     1    1    6 ar
     2    1    2 ar
     3    2    3 ar
     4    3    4 ar
     5    4   10 ar
     6    4    5 ar
     7    5    6 ar
     8    5    7 ar
     9    7    8 ar
    10    8    9 ar
    11    9   10 ar
    12   10   11 1
    13    1   12 1
    14    2   13 1
    15    3   14 1
    16    6   15 1
    17    7   16 1
    18    8   17 1
    19    9   18 1
    20   11   19 1
