@<TRIPOS>MOLECULE
(2S)-2-(4-isobutylphenyl)propanoic acid
   33    33     0     0     0
SMALL
USER_CHARGES

@<TRIPOS>ATOM
      1 C1         -3.2532    2.2962   -4.3066 C.3       1 MOL        -0.0872
      2 C2         -2.9842    3.5255   -3.4349 C.3       1 MOL        -0.0540
      3 H1         -3.9485    4.0156   -3.2429 H         1 MOL         0.0850
      4 C3         -2.3928    3.1749   -2.1115 C.ar      1 MOL        -0.0904
      5 C4         -1.1710    2.5049   -2.0486 C.ar      1 MOL        -0.1094
      6 C5         -0.6181    2.1773   -0.8106 C.ar      1 MOL        -0.1265
      7 C6         -1.2871    2.5197    0.3646 C.ar      1 MOL        -0.0648
      8 C7         -2.5090    3.1897    0.3016 C.ar      1 MOL        -0.1265
      9 C8         -3.0618    3.5172   -0.9364 C.ar      1 MOL        -0.1094
     10 C9         -0.6900    2.1628    1.7040 C.3       1 MOL        -0.0361
     11 C10         0.2330    3.2519    2.2848 C.3       1 MOL        -0.0619
     12 C11        -0.5047    4.5764    2.4967 C.3       1 MOL        -0.0923
     13 C12         0.8260    2.7743    3.6128 C.3       1 MOL        -0.0923
     14 C13        -2.1174    4.5239   -4.1885 C.2       1 MOL         0.6341
     15 O1         -1.2848    4.2380   -5.0393 O.2       1 MOL        -0.5390
     16 O2         -2.3650    5.8057   -3.8099 O.3       1 MOL        -0.6134
     17 H2         -2.3323    1.7513   -4.5420 H         1 MOL         0.0504
     18 H3         -3.9436    1.6039   -3.8124 H         1 MOL         0.0504
     19 H4         -3.7011    2.5869   -5.2633 H         1 MOL         0.0504
     20 H5         -0.6431    2.2342   -2.9591 H         1 MOL         0.1322
     21 H6          0.3337    1.6543   -0.7709 H         1 MOL         0.1339
     22 H7         -3.0375    3.4594    1.2122 H         1 MOL         0.1339
     23 H8         -4.0143    4.0391   -0.9756 H         1 MOL         0.1322
     24 H9         -1.4900    1.9307    2.4194 H         1 MOL         0.0474
     25 H10        -0.1276    1.2277    1.5790 H         1 MOL         0.0474
     26 H11         1.0660    3.4333    1.5937 H         1 MOL         0.0515
     27 H12         0.1621    5.3411    2.9095 H         1 MOL         0.0353
     28 H13        -1.3503    4.4561    3.1810 H         1 MOL         0.0353
     29 H14        -0.9039    4.9534    1.5489 H         1 MOL         0.0353
     30 H15         1.4857    3.5365    4.0410 H         1 MOL         0.0353
     31 H16         0.0399    2.5568    4.3440 H         1 MOL         0.0353
     32 H17         1.4182    1.8643    3.4697 H         1 MOL         0.0353
     33 H18        -3.0535    5.9145   -3.1199 H         1 MOL         0.4424
@<TRIPOS>BOND
     1    1    2 1
     2    2    3 1
     3    2    4 1
     4    4    9 ar
     5    4    5 ar
     6    5    6 ar
     7    6    7 ar
     8    7    8 ar
     9    8    9 ar
    10    7   10 1
    11   10   11 1
    12   11   12 1
    13   11   13 1
    14    2   14 1
    15   14   15 2
    16   14   16 1
    17    1   17 1
    18    1   18 1
    19    1   19 1
    20    5   20 1
    21    6   21 1
    22    8   22 1
    23    9   23 1
    24   10   24 1
    25   10   25 1
    26   11   26 1
    27   12   27 1
    28   12   28 1
    29   12   29 1
    30   13   30 1
    31   13   31 1
    32   13   32 1
    33   16   33 1
