@<TRIPOS>MOLECULE
3-methoxyphenol
   17    17     0     0     0
SMALL
USER_CHARGES

@<TRIPOS>ATOM
      1 C1          0.8354   -0.3933   -2.1384 C.3       1 MOL         0.1089
      2 O1          1.9275   -1.0165   -1.4726 O.3       1 MOL        -0.3193
      3 C2          1.8851   -1.0363   -0.1124 C.ar      1 MOL         0.1570
      4 C3          2.9210   -1.6309    0.6081 C.ar      1 MOL        -0.1892
      5 C4          2.8783   -1.6520    2.0022 C.ar      1 MOL        -0.0684
      6 C5          1.7997   -1.0786    2.6757 C.ar      1 MOL        -0.1902
      7 C6          0.7638   -0.4841    1.9551 C.ar      1 MOL         0.1558
      8 C7          0.8066   -0.4630    0.5610 C.ar      1 MOL        -0.2891
      9 O2         -0.2880    0.0754    2.6130 O.3       1 MOL        -0.4960
     10 H1          0.9895   -0.4441   -3.2190 H         1 MOL         0.0450
     11 H2          0.7596    0.6491   -1.8189 H         1 MOL         0.0450
     12 H3         -0.0863   -0.9197   -1.8790 H         1 MOL         0.0450
     13 H4          3.7641   -2.0780    0.0888 H         1 MOL         0.1509
     14 H5          3.6852   -2.1143    2.5633 H         1 MOL         0.1365
     15 H6          1.7712   -1.0986    3.7617 H         1 MOL         0.1518
     16 H7         -0.0002    0.0011   -0.0005 H         1 MOL         0.1381
     17 H8         -0.9228    0.4458    1.9791 H         1 MOL         0.4184
@<TRIPOS>BOND
     1    1    2 1
     2    2    3 1
     3    3    8 ar
     4    3    4 ar
     5    4    5 ar
     6    5    6 ar
     7    6    7 ar
     8    7    8 ar
     9    7    9 1
    10    1   10 1
    11    1   11 1
    12    1   12 1
    13    4   13 1
    14    5   14 1
    15    6   15 1
    16    8   16 1
    17    9   17 1
