@<TRIPOS>MOLECULE
2-chloroaniline
   14    14     0     0     0
SMALL
USER_CHARGES

@<TRIPOS>ATOM
      1 C1          1.8851   -1.0363   -0.1124 C.ar      1 MOL        -0.0877
      2 C2          2.9210   -1.6309    0.6081 C.ar      1 MOL        -0.1705
      3 C3          2.8783   -1.6520    2.0022 C.ar      1 MOL        -0.0831
      4 C4          1.7997   -1.0786    2.6757 C.ar      1 MOL        -0.0510
      5 C5          0.7638   -0.4841    1.9551 C.ar      1 MOL         0.1587
      6 C6          0.8066   -0.4630    0.5610 C.ar      1 MOL        -0.1904
      7 N1         -0.3419    0.1053    2.6086 N.pl3     1 MOL        -0.8221
      8 Cl1         1.7870   -1.1263    4.4024 Cl        1 MOL        -0.1053
      9 H1          1.9193   -1.0194   -1.1979 H         1 MOL         0.1341
     10 H2          3.7604   -2.0775    0.0833 H         1 MOL         0.1358
     11 H3          3.6936   -2.1193    2.5487 H         1 MOL         0.1452
     12 H4          0.0054   -0.0026   -0.0117 H         1 MOL         0.1348
     13 H5         -0.4017    0.0523    3.6040 H         1 MOL         0.4008
     14 H6         -1.0869    0.4795    2.0590 H         1 MOL         0.4008
@<TRIPOS>BOND
     1    1    6 ar
     2    1    2 ar
     3    2    3 ar
     4    3    4 ar
     5    4    5 ar
     6    5    6 ar
     7    5    7 1
     8    4    8 1
     9    1    9 1
    10    2   10 1
    11    3   11 1
    12    6   12 1
    13    7   13 1
    14    7   14 1
