@<TRIPOS>MOLECULE
2-methylpropanal
   13    12     0     0     0
SMALL
USER_CHARGES

@<TRIPOS>ATOM
      1 C1         -0.4393   -0.8920    0.4598 C.3       1 MOL        -0.0864
      2 C2         -1.9421   -0.7229    0.6486 C.3       1 MOL        -0.1833
      3 C3         -2.5622   -1.9747    1.2574 C.3       1 MOL        -0.0864
      4 C4         -2.1993    0.5040    1.5020 C.2       1 MOL         0.5656
      5 O1         -2.7795    0.4928    2.5828 O.2       1 MOL        -0.5220
      6 H1          0.0038    0.0092    0.0222 H         1 MOL         0.0426
      7 H2         -0.2207   -1.7328   -0.2065 H         1 MOL         0.0426
      8 H3          0.0632   -1.0725    1.4167 H         1 MOL         0.0426
      9 H4         -2.4061   -0.5326   -0.3263 H         1 MOL         0.0676
     10 H5         -3.6418   -1.8499    1.3916 H         1 MOL         0.0426
     11 H6         -2.1238   -2.1899    2.2379 H         1 MOL         0.0426
     12 H7         -2.3965   -2.8517    0.6218 H         1 MOL         0.0426
     13 H8         -1.8591    1.4599    1.0661 H         1 MOL        -0.0105
@<TRIPOS>BOND
     1    1    2 1
     2    2    3 1
     3    2    4 1
     4    4    5 2
     5    1    6 1
     6    1    7 1
     7    1    8 1
     8    2    9 1
     9    3   10 1
    10    3   11 1
    11    3   12 1
    12    4   13 1
