@<TRIPOS>MOLECULE
2,3-diacetoxypropyl acetate
   29    28     0     0     0
SMALL
USER_CHARGES

@<TRIPOS>ATOM
      1 C1          1.1588    2.1227    3.2627 C.3       1 MOL        -0.1496
      2 C2          0.9655    1.0111    2.2762 C.2       1 MOL         0.6344
      3 O1          0.7164   -0.1456    2.5875 O.2       1 MOL        -0.5394
      4 O2          1.1111    1.4951    1.0099 O.3       1 MOL        -0.4414
      5 C3          0.9523    0.5385   -0.0326 C.3       1 MOL         0.1280
      6 C4          1.1440    1.2331   -1.3744 C.3       1 MOL         0.1429
      7 C5          0.9856    0.2573   -2.5348 C.3       1 MOL         0.1280
      8 O3          1.9529   -0.7819   -2.4276 O.3       1 MOL        -0.4414
      9 C6          1.9182   -1.7285   -3.4127 C.2       1 MOL         0.6344
     10 O4          1.1425   -1.7574   -4.3586 O.2       1 MOL        -0.5394
     11 C7          2.9863   -2.7518   -3.1717 C.3       1 MOL        -0.1496
     12 O5          2.4671    1.7733   -1.4064 O.3       1 MOL        -0.4210
     13 C8          2.6181    2.9145   -2.1383 C.2       1 MOL         0.6365
     14 O6          1.7398    3.5020   -2.7552 O.2       1 MOL        -0.5446
     15 C9          4.0470    3.3629   -2.0812 C.3       1 MOL        -0.1488
     16 H1          2.2128    2.1907    3.5430 H         1 MOL         0.0774
     17 H2          0.5360    1.9490    4.1439 H         1 MOL         0.0774
     18 H3          0.8578    3.0697    2.8055 H         1 MOL         0.0774
     19 H4          1.6987   -0.2487    0.1169 H         1 MOL         0.0698
     20 H5         -0.0518    0.1109    0.0500 H         1 MOL         0.0698
     21 H6          0.4552    2.0798   -1.4720 H         1 MOL         0.0957
     22 H7          1.1267    0.7531   -3.5003 H         1 MOL         0.0698
     23 H8         -0.0018   -0.2149   -2.5212 H         1 MOL         0.0698
     24 H9          2.5911   -3.5618   -2.5538 H         1 MOL         0.0774
     25 H10         3.8470   -2.2828   -2.6883 H         1 MOL         0.0774
     26 H11         3.3105   -3.1700   -4.1291 H         1 MOL         0.0774
     27 H12         4.6105    2.9111   -2.9012 H         1 MOL         0.0773
     28 H13         4.4832    3.0896   -1.1171 H         1 MOL         0.0773
     29 H14         4.0901    4.4509   -2.1863 H         1 MOL         0.0773
@<TRIPOS>BOND
     1    1    2 1
     2    2    3 2
     3    2    4 1
     4    4    5 1
     5    5    6 1
     6    6    7 1
     7    7    8 1
     8    8    9 1
     9    9   10 2
    10    9   11 1
    11    6   12 1
    12   12   13 1
    13   13   14 2
    14   13   15 1
    15    1   16 1
    16    1   17 1
    17    1   18 1
    18    5   19 1
    19    5   20 1
    20    6   21 1
    21    7   22 1
    22    7   23 1
    23   11   24 1
    24   11   25 1
    25   11   26 1
    26   15   27 1
    27   15   28 1
    28   15   29 1
