@<TRIPOS>MOLECULE
3-chloroaniline
   14    14     0     0     0
SMALL
USER_CHARGES

@<TRIPOS>ATOM
      1 C1          1.8851   -1.0363   -0.1124 C.ar      1 MOL        -0.0837
      2 C2          2.9210   -1.6309    0.6081 C.ar      1 MOL        -0.1931
      3 C3          2.8783   -1.6520    2.0022 C.ar      1 MOL         0.1522
      4 C4          1.7997   -1.0786    2.6757 C.ar      1 MOL        -0.1918
      5 C5          0.7638   -0.4841    1.9551 C.ar      1 MOL         0.0573
      6 C6          0.8066   -0.4630    0.5610 C.ar      1 MOL        -0.1694
      7 Cl1        -0.5669    0.2241    2.7853 Cl        1 MOL        -0.1005
      8 N1          3.9260   -2.2530    2.7304 N.pl3     1 MOL        -0.8216
      9 H1          1.9188   -1.0194   -1.1979 H         1 MOL         0.1362
     10 H2          3.7570   -2.0741    0.0733 H         1 MOL         0.1340
     11 H3          1.7699   -1.0968    3.7631 H         1 MOL         0.1467
     12 H4          0.0065   -0.0033   -0.0136 H         1 MOL         0.1465
     13 H5          4.6698   -2.7016    2.2349 H         1 MOL         0.3937
     14 H6          3.8609   -2.3034    3.7270 H         1 MOL         0.3937
@<TRIPOS>BOND
     1    1    6 ar
     2    1    2 ar
     3    2    3 ar
     4    3    4 ar
     5    4    5 ar
     6    5    6 ar
     7    5    7 1
     8    3    8 1
     9    1    9 1
    10    2   10 1
    11    4   11 1
    12    6   12 1
    13    8   13 1
    14    8   14 1
