@<TRIPOS>MOLECULE
[(Z)-(2-methyl-2-methylsulfanyl-propylidene)amino] N-methylcarbamate
   26    25     0     0     0
SMALL
USER_CHARGES

@<TRIPOS>ATOM
      1 C1          0.7673    0.3743    0.6883 C.3       1 MOL        -0.0931
      2 C2          2.1338    0.4195    0.0035 C.3       1 MOL        -0.0244
      3 C3          2.1055    1.3693   -1.1946 C.3       1 MOL        -0.0931
      4 C4          2.6040   -0.9448   -0.4694 C.2       1 MOL         0.3833
      5 N1          1.9357   -1.6468   -1.3255 N.2       1 MOL        -0.3634
      6 O1          0.7848   -0.9340   -1.6877 O.3       1 MOL        -0.2544
      7 C5          0.0739   -1.6726   -2.5937 C.2       1 MOL         0.7636
      8 O2          0.4013   -2.7785   -3.0132 O.2       1 MOL        -0.5261
      9 N2         -1.0617   -0.9808   -2.9613 N.am      1 MOL        -0.5652
     10 C6         -2.0327   -1.4795   -3.9078 C.3       1 MOL         0.0929
     11 S1          3.3859    1.0049    1.2061 S.3       1 MOL        -0.3116
     12 C7          2.6533    2.6164    1.5589 C.3       1 MOL        -0.0295
     13 H1          0.7859   -0.3065    1.5479 H         1 MOL         0.0497
     14 H2          0.4647    1.3577    1.0676 H         1 MOL         0.0497
     15 H3         -0.0158    0.0181    0.0089 H         1 MOL         0.0497
     16 H4          3.0763    1.4182   -1.7026 H         1 MOL         0.0497
     17 H5          1.8212    2.3869   -0.9022 H         1 MOL         0.0497
     18 H6          1.3779    1.0266   -1.9404 H         1 MOL         0.0497
     19 H7          3.5510   -1.3244   -0.0399 H         1 MOL         0.0581
     20 H8         -1.2241   -0.0699   -2.5432 H         1 MOL         0.3286
     21 H9         -2.7989   -2.0509   -3.3827 H         1 MOL         0.0479
     22 H10        -1.5415   -2.1252   -4.6369 H         1 MOL         0.0479
     23 H11        -2.5031   -0.6455   -4.4300 H         1 MOL         0.0479
     24 H12         3.2690    3.1528    2.2846 H         1 MOL         0.0642
     25 H13         1.6498    2.4848    1.9701 H         1 MOL         0.0642
     26 H14         2.5898    3.2034    0.6398 H         1 MOL         0.0642
@<TRIPOS>BOND
     1    1    2 1
     2    2    3 1
     3    2    4 1
     4    4    5 2
     5    5    6 1
     6    6    7 1
     7    7    8 2
     8    7    9 am
     9    9   10 1
    10    2   11 1
    11   11   12 1
    12    1   13 1
    13    1   14 1
    14    1   15 1
    15    3   16 1
    16    3   17 1
    17    3   18 1
    18    4   19 1
    19    9   20 1
    20   10   21 1
    21   10   22 1
    22   10   23 1
    23   12   24 1
    24   12   25 1
    25   12   26 1
