@<TRIPOS>MOLECULE
diethyl (2R)-2-dimethoxyphosphinothioylsulfanylbutanedioate
   38    37     0     0     0
SMALL
USER_CHARGES

@<TRIPOS>ATOM
      1 C1         -2.5176   -5.5056   -1.2596 C.3       1 MOL        -0.1014
      2 C2         -3.2090   -4.3498   -0.5684 C.3       1 MOL         0.1346
      3 O1         -3.2468   -3.2297   -1.4584 O.3       1 MOL        -0.4312
      4 C3         -3.8468   -2.1059   -0.9644 C.2       1 MOL         0.6248
      5 O2         -4.3400   -1.9877    0.1487 O.2       1 MOL        -0.5306
      6 C4         -3.7773   -1.0124   -2.0101 C.3       1 MOL        -0.1396
      7 C5         -4.4781   -1.3786   -3.3208 C.3       1 MOL         0.1142
      8 H1         -4.0360   -2.2705   -3.7792 H         1 MOL         0.1248
      9 C6         -4.3597   -0.2317   -4.3073 C.2       1 MOL         0.6542
     10 O3         -5.1528    0.6931   -4.4251 O.2       1 MOL        -0.5075
     11 O4         -3.2390   -0.4163   -5.0701 O.3       1 MOL        -0.4264
     12 C7         -3.0081    0.5731   -6.0782 C.3       1 MOL         0.1418
     13 C8         -1.7412    0.2185   -6.8197 C.3       1 MOL        -0.1019
     14 S1         -6.2435   -1.7603   -3.0514 S.3       1 MOL        -0.3917
     15 P1         -6.8221   -2.8859   -4.7545 P.3       1 MOL         0.8367
     16 S2         -8.6803   -3.5065   -4.8629 S.2       1 MOL        -0.3947
     17 O5         -6.3762   -2.0312   -6.0755 O.3       1 MOL        -0.4913
     18 C9         -6.2348   -2.6742   -7.3313 C.3       1 MOL         0.1201
     19 O6         -5.7550   -4.1151   -4.9100 O.3       1 MOL        -0.4913
     20 C10        -5.6017   -5.0674   -3.8705 C.3       1 MOL         0.1201
     21 H2         -2.4715   -6.3805   -0.6052 H         1 MOL         0.0495
     22 H3         -3.0473   -5.7787   -2.1782 H         1 MOL         0.0495
     23 H4         -1.4990   -5.2279   -1.5502 H         1 MOL         0.0495
     24 H5         -2.6649   -4.0628    0.3364 H         1 MOL         0.0529
     25 H6         -4.2342   -4.6210   -0.2993 H         1 MOL         0.0529
     26 H7         -2.7265   -0.7559   -2.1948 H         1 MOL         0.1088
     27 H8         -4.2551   -0.1298   -1.5662 H         1 MOL         0.1088
     28 H9         -3.8660    0.5807   -6.7512 H         1 MOL         0.0526
     29 H10        -2.9167    1.5433   -5.5891 H         1 MOL         0.0526
     30 H11        -1.5348    0.9566   -7.5997 H         1 MOL         0.0514
     31 H12        -0.8873    0.1788   -6.1355 H         1 MOL         0.0514
     32 H13        -1.8245   -0.7705   -7.2824 H         1 MOL         0.0514
     33 H14        -5.9333   -1.9412   -8.0825 H         1 MOL         0.0675
     34 H15        -7.1849   -3.1334   -7.6131 H         1 MOL         0.0675
     35 H16        -5.4676   -3.4467   -7.2484 H         1 MOL         0.0675
     36 H17        -4.8486   -5.8031   -4.1606 H         1 MOL         0.0675
     37 H18        -6.5586   -5.5604   -3.6859 H         1 MOL         0.0675
     38 H19        -5.2768   -4.5520   -2.9645 H         1 MOL         0.0675
@<TRIPOS>BOND
     1    1    2 1
     2    2    3 1
     3    3    4 1
     4    4    5 2
     5    4    6 1
     6    6    7 1
     7    7    8 1
     8    7    9 1
     9    9   10 2
    10    9   11 1
    11   11   12 1
    12   12   13 1
    13    7   14 1
    14   14   15 1
    15   15   16 2
    16   15   17 1
    17   17   18 1
    18   15   19 1
    19   19   20 1
    20    1   21 1
    21    1   22 1
    22    1   23 1
    23    2   24 1
    24    2   25 1
    25    6   26 1
    26    6   27 1
    27   12   28 1
    28   12   29 1
    29   13   30 1
    30   13   31 1
    31   13   32 1
    32   18   33 1
    33   18   34 1
    34   18   35 1
    35   20   36 1
    36   20   37 1
    37   20   38 1
