@<TRIPOS>MOLECULE
2-methylpyrazine
   13    13     0     0     0
SMALL
USER_CHARGES

@<TRIPOS>ATOM
      1 C1          0.0878    0.3939   -0.0546 C.3       1 MOL        -0.1477
      2 C2         -0.3211   -1.0181    0.1824 C.ar      1 MOL         0.3012
      3 C3         -1.5571   -1.3073    0.7174 C.ar      1 MOL         0.2773
      4 N1         -1.9573   -2.5739    0.9453 N.ar      1 MOL        -0.6256
      5 C4         -1.0772   -3.5410    0.6188 C.ar      1 MOL         0.2715
      6 C5          0.1585   -3.2519    0.0831 C.ar      1 MOL         0.2878
      7 N2          0.5588   -1.9852   -0.1444 N.ar      1 MOL        -0.6359
      8 H1         -0.2085    0.7056   -1.0608 H         1 MOL         0.0573
      9 H2         -0.3785    1.0638    0.6754 H         1 MOL         0.0573
     10 H3          1.1722    0.5090    0.0469 H         1 MOL         0.0573
     11 H4         -2.2694   -0.5353    0.9841 H         1 MOL         0.0330
     12 H5         -1.3988   -4.5586    0.8024 H         1 MOL         0.0336
     13 H6          0.8651   -4.0292   -0.1802 H         1 MOL         0.0331
@<TRIPOS>BOND
     1    1    2 1
     2    2    7 ar
     3    2    3 ar
     4    3    4 ar
     5    4    5 ar
     6    5    6 ar
     7    6    7 ar
     8    1    8 1
     9    1    9 1
    10    1   10 1
    11    3   11 1
    12    5   12 1
    13    6   13 1
