@<TRIPOS>MOLECULE
2,6-dimethylpyridine
   17    17     0     0     0
SMALL
USER_CHARGES

@<TRIPOS>ATOM
      1 C1          0.9808   -2.1308    4.7573 C.3       1 MOL        -0.1501
      2 C2          0.7299   -1.5161    3.4206 C.ar      1 MOL         0.4184
      3 C3          1.6520   -0.6227    2.8997 C.ar      1 MOL        -0.2550
      4 C4          1.3879   -0.0684    1.6522 C.ar      1 MOL        -0.0868
      5 C5          0.2265   -0.4197    0.9733 C.ar      1 MOL        -0.2550
      6 C6         -0.6317   -1.3224    1.5803 C.ar      1 MOL         0.4184
      7 N1         -0.4092   -1.8816    2.7908 N.ar      1 MOL        -0.6744
      8 C7         -1.8875   -1.7228    0.8804 C.3       1 MOL        -0.1501
      9 H1          1.5428   -3.0626    4.6414 H         1 MOL         0.0527
     10 H2          1.5507   -1.4511    5.3994 H         1 MOL         0.0527
     11 H3          0.0382   -2.3473    5.2711 H         1 MOL         0.0527
     12 H4          2.5550   -0.3581    3.4393 H         1 MOL         0.1411
     13 H5          2.0848    0.6373    1.2103 H         1 MOL         0.1357
     14 H6          0.0081    0.0065   -0.0001 H         1 MOL         0.1411
     15 H7         -1.7089   -2.6027    0.2510 H         1 MOL         0.0527
     16 H8         -2.6830   -1.9625    1.5973 H         1 MOL         0.0527
     17 H9         -2.2650   -0.9108    0.2458 H         1 MOL         0.0527
@<TRIPOS>BOND
     1    1    2 1
     2    2    7 ar
     3    2    3 ar
     4    3    4 ar
     5    4    5 ar
     6    5    6 ar
     7    6    7 ar
     8    6    8 1
     9    1    9 1
    10    1   10 1
    11    1   11 1
    12    3   12 1
    13    4   13 1
    14    5   14 1
    15    8   15 1
    16    8   16 1
    17    8   17 1
