@<TRIPOS>MOLECULE
4-methylbenzaldehyde
   17    17     0     0     0
SMALL
USER_CHARGES

@<TRIPOS>ATOM
      1 C1          1.9301   -1.0136   -1.6031 C.3       1 MOL        -0.0619
      2 C2          1.8851   -1.0363   -0.1124 C.ar      1 MOL        -0.0422
      3 C3          2.9210   -1.6309    0.6081 C.ar      1 MOL        -0.1480
      4 C4          2.8783   -1.6520    2.0022 C.ar      1 MOL        -0.0735
      5 C5          1.7997   -1.0786    2.6757 C.ar      1 MOL        -0.2039
      6 C6          0.7638   -0.4841    1.9551 C.ar      1 MOL        -0.0735
      7 C7          0.8066   -0.4630    0.5610 C.ar      1 MOL        -0.1480
      8 C8          1.7553   -1.1010    4.1293 C.2       1 MOL         0.5762
      9 O1          0.8299   -0.6115    4.7826 O.2       1 MOL        -0.5313
     10 H1          2.4377   -0.1078   -1.9487 H         1 MOL         0.0493
     11 H2          2.4627   -1.8880   -1.9916 H         1 MOL         0.0493
     12 H3          0.9197   -1.0362   -2.0250 H         1 MOL         0.0493
     13 H4          3.7653   -2.0798    0.0916 H         1 MOL         0.1369
     14 H5          3.6905   -2.1181    2.5539 H         1 MOL         0.1440
     15 H6         -0.0812   -0.0346    2.4698 H         1 MOL         0.1440
     16 H7         -0.0050    0.0024    0.0078 H         1 MOL         0.1369
     17 H8          2.6039   -1.5857    4.6594 H         1 MOL        -0.0034
@<TRIPOS>BOND
     1    1    2 1
     2    2    7 ar
     3    2    3 ar
     4    3    4 ar
     5    4    5 ar
     6    5    6 ar
     7    6    7 ar
     8    5    8 1
     9    8    9 2
    10    1   10 1
    11    1   11 1
    12    1   12 1
    13    3   13 1
    14    4   14 1
    15    6   15 1
    16    7   16 1
    17    8   17 1
