@<TRIPOS>MOLECULE
propylbenzene
   21    21     0     0     0
SMALL
USER_CHARGES

@<TRIPOS>ATOM
      1 C1          2.6809    0.2613   -3.6438 C.3       1 MOL        -0.0935
      2 C2          2.6352    0.2404   -2.1242 C.3       1 MOL        -0.0770
      3 C3          1.9309   -1.0140   -1.6029 C.3       1 MOL        -0.0375
      4 C4          1.8851   -1.0363   -0.1124 C.ar      1 MOL        -0.0775
      5 C5          2.9210   -1.6309    0.6081 C.ar      1 MOL        -0.1277
      6 C6          2.8783   -1.6520    2.0022 C.ar      1 MOL        -0.1285
      7 C7          1.7997   -1.0786    2.6757 C.ar      1 MOL        -0.1336
      8 C8          0.7638   -0.4841    1.9551 C.ar      1 MOL        -0.1285
      9 C9          0.8066   -0.4630    0.5610 C.ar      1 MOL        -0.1277
     10 H1          3.1861    1.1614   -4.0086 H         1 MOL         0.0334
     11 H2          3.2123   -0.6133   -4.0323 H         1 MOL         0.0334
     12 H3          1.6661    0.2520   -4.0537 H         1 MOL         0.0334
     13 H4          2.1176    1.1395   -1.7683 H         1 MOL         0.0433
     14 H5          3.6590    0.2888   -1.7337 H         1 MOL         0.0433
     15 H6          2.4467   -1.9103   -1.9713 H         1 MOL         0.0468
     16 H7          0.9110   -1.0623   -2.0061 H         1 MOL         0.0468
     17 H8          3.7649   -2.0803    0.0915 H         1 MOL         0.1306
     18 H9          3.6850   -2.1148    2.5632 H         1 MOL         0.1300
     19 H10         1.7662   -1.0949    3.7611 H         1 MOL         0.1297
     20 H11        -0.0762   -0.0382    2.4794 H         1 MOL         0.1300
     21 H12        -0.0050    0.0028    0.0083 H         1 MOL         0.1306
@<TRIPOS>BOND
     1    1    2 1
     2    2    3 1
     3    3    4 1
     4    4    9 ar
     5    4    5 ar
     6    5    6 ar
     7    6    7 ar
     8    7    8 ar
     9    8    9 ar
    10    1   10 1
    11    1   11 1
    12    1   12 1
    13    2   13 1
    14    2   14 1
    15    3   15 1
    16    3   16 1
    17    5   17 1
    18    6   18 1
    19    7   19 1
    20    8   20 1
    21    9   21 1
