@<TRIPOS>MOLECULE
1-nitroethane
   10     9     0     0     0
SMALL
USER_CHARGES

@<TRIPOS>ATOM
      1 C1          0.2391    0.2403    1.0420 C.3       1 MOL        -0.1124
      2 C2          1.1261   -0.8170    1.6638 C.3       1 MOL        -0.0736
      3 N1          2.3767   -0.9039    0.9079 N.pl3     1 MOL         0.2261
      4 O1          3.3249   -0.1750    1.2631 O.2       1 MOL        -0.2103
      5 O2          2.4241   -1.6875   -0.0617 O.3       1 MOL        -0.2103
      6 H1         -0.7099    0.3352    1.5819 H         1 MOL         0.0641
      7 H2          0.7246    1.2226    1.0451 H         1 MOL         0.0641
      8 H3          0.0115   -0.0207    0.0034 H         1 MOL         0.0641
      9 H4          0.6538   -1.8025    1.6321 H         1 MOL         0.0941
     10 H5          1.3844   -0.5686    2.6966 H         1 MOL         0.0941
@<TRIPOS>BOND
     1    1    2 1
     2    2    3 1
     3    3    4 2
     4    3    5 1
     5    1    6 1
     6    1    7 1
     7    1    8 1
     8    2    9 1
     9    2   10 1
