@<TRIPOS>MOLECULE
hexane
   20    19     0     0     0
SMALL
USER_CHARGES

@<TRIPOS>ATOM
      1 C1         -0.7496   -0.7226   -0.3375 C.3       1 MOL        -0.0924
      2 C2         -0.8325   -0.7252   -1.8556 C.3       1 MOL        -0.0795
      3 C3         -1.8736   -1.7251   -2.3579 C.3       1 MOL        -0.0787
      4 C4         -1.9540   -1.7248   -3.8854 C.3       1 MOL        -0.0787
      5 C5         -2.9953   -2.7248   -4.3874 C.3       1 MOL        -0.0795
      6 C6         -3.0784   -2.7277   -5.9055 C.3       1 MOL        -0.0924
      7 H1         -0.0020   -0.0040    0.0134 H         1 MOL         0.0324
      8 H2         -0.4657   -1.7143    0.0284 H         1 MOL         0.0324
      9 H3         -1.7147   -0.4597    0.1074 H         1 MOL         0.0324
     10 H4          0.1520   -0.9733   -2.2688 H         1 MOL         0.0381
     11 H5         -1.0859    0.2829   -2.2037 H         1 MOL         0.0381
     12 H6         -2.8557   -1.4750   -1.9383 H         1 MOL         0.0387
     13 H7         -1.6177   -2.7312   -2.0036 H         1 MOL         0.0387
     14 H8         -0.9721   -1.9749   -4.3052 H         1 MOL         0.0387
     15 H9         -2.2101   -0.7189   -4.2396 H         1 MOL         0.0387
     16 H10        -2.7416   -3.7329   -4.0395 H         1 MOL         0.0381
     17 H11        -3.9797   -2.4768   -3.9739 H         1 MOL         0.0381
     18 H12        -3.8261   -3.4463   -6.2564 H         1 MOL         0.0324
     19 H13        -3.3485   -1.7372   -6.2855 H         1 MOL         0.0324
     20 H14        -2.1117   -3.0051   -6.3374 H         1 MOL         0.0324
@<TRIPOS>BOND
     1    1    2 1
     2    2    3 1
     3    3    4 1
     4    4    5 1
     5    5    6 1
     6    1    7 1
     7    1    8 1
     8    1    9 1
     9    2   10 1
    10    2   11 1
    11    3   12 1
    12    3   13 1
    13    4   14 1
    14    4   15 1
    15    5   16 1
    16    5   17 1
    17    6   18 1
    18    6   19 1
    19    6   20 1
