@<TRIPOS>MOLECULE
N-(cyclopropylmethyl)-2,6-dinitro-N-propyl-4-(trifluoromethyl)aniline
   40    41     0     0     0
SMALL
USER_CHARGES

@<TRIPOS>ATOM
      1 C1          3.4481    3.6057   -0.0289 C.3       1 MOL        -0.0892
      2 C2          3.6344    2.8445   -1.3338 C.3       1 MOL        -0.1092
      3 C3          2.6189    1.7221   -1.5111 C.3       1 MOL         0.2424
      4 N1          2.8015    1.0088   -2.7448 N.pl3     1 MOL        -0.7866
      5 C4          2.7100    1.7478   -4.0090 C.3       1 MOL         0.2651
      6 C5          1.3666    2.3536   -4.1467 C.3       1 MOL        -0.1569
      7 C6          1.1842    3.8466   -4.0339 C.3       1 MOL        -0.1254
      8 C7          1.0148    3.1699   -5.3654 C.3       1 MOL        -0.1254
      9 C8          3.0768   -0.3694   -2.7666 C.ar      1 MOL         0.2996
     10 C9          4.3975   -0.8173   -2.7389 C.ar      1 MOL        -0.1750
     11 C10         4.6708   -2.1849   -2.7608 C.ar      1 MOL        -0.0152
     12 C11         3.6233   -3.1047   -2.8104 C.ar      1 MOL        -0.1742
     13 C12         2.3026   -2.6568   -2.8382 C.ar      1 MOL        -0.0152
     14 C13         2.0293   -1.2891   -2.8163 C.ar      1 MOL        -0.1750
     15 N2          0.6718   -0.8617   -2.8453 N.pl3     1 MOL         0.3189
     16 O1          0.1264   -0.6564   -3.9546 O.2       1 MOL        -0.1785
     17 O2          0.0644   -0.7041   -1.7607 O.3       1 MOL        -0.1785
     18 C14         3.9154   -4.5671   -2.8334 C.3       1 MOL         0.6942
     19 F1          5.2493   -4.8595   -2.8016 F         1 MOL        -0.2246
     20 F2          3.3763   -5.2489   -1.7798 F         1 MOL        -0.2246
     21 F3          3.4327   -5.1814   -3.9526 F         1 MOL        -0.2246
     22 N3          5.4873    0.0972   -2.6876 N.pl3     1 MOL         0.3189
     23 O3          5.9188    0.4611   -1.5689 O.2       1 MOL        -0.1785
     24 O4          5.9812    0.5100   -3.7627 O.3       1 MOL        -0.1785
     25 H1          4.1909    4.4038    0.0690 H         1 MOL         0.0376
     26 H2          2.4540    4.0632    0.0016 H         1 MOL         0.0376
     27 H3          3.5385    2.9421    0.8366 H         1 MOL         0.0376
     28 H4          4.6428    2.4150   -1.3478 H         1 MOL         0.0510
     29 H5          3.5692    3.5471   -2.1730 H         1 MOL         0.0510
     30 H6          2.7219    0.9926   -0.7016 H         1 MOL         0.0558
     31 H7          1.5943    2.1068   -1.4947 H         1 MOL         0.0558
     32 H8          3.4909    2.5008   -3.9774 H         1 MOL         0.0554
     33 H9          2.9162    1.0292   -4.7954 H         1 MOL         0.0554
     34 H10         0.5828    1.7270   -3.7292 H         1 MOL         0.0955
     35 H11         0.2939    4.2131   -3.5377 H         1 MOL         0.0741
     36 H12         2.0635    4.4624   -3.8903 H         1 MOL         0.0741
     37 H13         0.0109    3.0828   -5.7625 H         1 MOL         0.0741
     38 H14         1.7807    3.3321   -6.1137 H         1 MOL         0.0741
     39 H15         5.6991   -2.5403   -2.7382 H         1 MOL         0.1836
     40 H16         1.4895   -3.3789   -2.8784 H         1 MOL         0.1836
@<TRIPOS>BOND
     1    1    2 1
     2    2    3 1
     3    3    4 1
     4    4    5 1
     5    5    6 1
     6    6    8 1
     7    6    7 1
     8    7    8 1
     9    4    9 1
    10    9   14 ar
    11    9   10 ar
    12   10   11 ar
    13   11   12 ar
    14   12   13 ar
    15   13   14 ar
    16   14   15 1
    17   15   16 2
    18   15   17 1
    19   12   18 1
    20   18   19 1
    21   18   20 1
    22   18   21 1
    23   10   22 1
    24   22   23 2
    25   22   24 1
    26    1   25 1
    27    1   26 1
    28    1   27 1
    29    2   28 1
    30    2   29 1
    31    3   30 1
    32    3   31 1
    33    5   32 1
    34    5   33 1
    35    6   34 1
    36    7   35 1
    37    7   36 1
    38    8   37 1
    39    8   38 1
    40   11   39 1
    41   13   40 1
