@<TRIPOS>MOLECULE
methoxymethane
    9     8     0     0     0
SMALL
USER_CHARGES

@<TRIPOS>ATOM
      1 C1         -0.6104   -0.5152    0.7482 C.3       1 MOL         0.1119
      2 O1          0.0353   -0.4987    2.0141 O.3       1 MOL        -0.4182
      3 C2          1.2893   -1.1660    1.9689 C.3       1 MOL         0.1120
      4 H1         -1.5686    0.0052    0.8203 H         1 MOL         0.0324
      5 H2         -0.7682   -1.5494    0.4320 H         1 MOL         0.0324
      6 H3          0.0241   -0.0060    0.0189 H         1 MOL         0.0324
      7 H4          1.7511   -1.1312    2.9567 H         1 MOL         0.0324
      8 H5          1.9304   -0.6778    1.2333 H         1 MOL         0.0324
      9 H6          1.1232   -2.2043    1.6787 H         1 MOL         0.0324
@<TRIPOS>BOND
     1    1    2 1
     2    2    3 1
     3    1    4 1
     4    1    5 1
     5    1    6 1
     6    3    7 1
     7    3    8 1
     8    3    9 1
