@<TRIPOS>MOLECULE
(3S)-3-methylheptane
   26    25     0     0     0
SMALL
USER_CHARGES

@<TRIPOS>ATOM
      1 C1          0.1378    0.8569    0.4569 C.3       1 MOL        -0.0915
      2 C2          0.1824    0.7329    1.9716 C.3       1 MOL        -0.0798
      3 C3          1.3510   -0.1423    2.4288 C.3       1 MOL        -0.0787
      4 C4          1.3886   -0.2619    3.9557 C.3       1 MOL        -0.0742
      5 C5          2.5482   -1.1349    4.4840 C.3       1 MOL        -0.0625
      6 H1          2.4348   -2.1445    4.0679 H         1 MOL         0.0449
      7 C6          3.9118   -0.5889    4.0498 C.3       1 MOL        -0.0908
      8 C7          2.4436   -1.2327    6.0208 C.3       1 MOL        -0.0766
      9 C8          3.5397   -2.0735    6.6609 C.3       1 MOL        -0.0919
     10 H2         -0.7010    1.4845    0.1393 H         1 MOL         0.0328
     11 H3          1.0627    1.2983    0.0719 H         1 MOL         0.0328
     12 H4          0.0164   -0.1301   -0.0006 H         1 MOL         0.0328
     13 H5          0.2714    1.7334    2.4109 H         1 MOL         0.0375
     14 H6         -0.7630    0.3055    2.3258 H         1 MOL         0.0375
     15 H7          1.2497   -1.1337    1.9742 H         1 MOL         0.0391
     16 H8          2.2936    0.2882    2.0698 H         1 MOL         0.0391
     17 H9          0.4312   -0.6622    4.3135 H         1 MOL         0.0377
     18 H10         1.4846    0.7462    4.3795 H         1 MOL         0.0377
     19 H11         4.7295   -1.2104    4.4263 H         1 MOL         0.0339
     20 H12         3.9913   -0.5470    2.9583 H         1 MOL         0.0339
     21 H13         4.0835    0.4176    4.4420 H         1 MOL         0.0339
     22 H14         2.5020   -0.2241    6.4488 H         1 MOL         0.0372
     23 H15         1.4657   -1.6396    6.3063 H         1 MOL         0.0372
     24 H16         3.4310   -2.1183    7.7480 H         1 MOL         0.0327
     25 H17         4.5199   -1.6347    6.4480 H         1 MOL         0.0327
     26 H18         3.5332   -3.0945    6.2670 H         1 MOL         0.0327
@<TRIPOS>BOND
     1    1    2 1
     2    2    3 1
     3    3    4 1
     4    4    5 1
     5    5    6 1
     6    5    7 1
     7    5    8 1
     8    8    9 1
     9    1   10 1
    10    1   11 1
    11    1   12 1
    12    2   13 1
    13    2   14 1
    14    3   15 1
    15    3   16 1
    16    4   17 1
    17    4   18 1
    18    7   19 1
    19    7   20 1
    20    7   21 1
    21    8   22 1
    22    8   23 1
    23    9   24 1
    24    9   25 1
    25    9   26 1
