@<TRIPOS>MOLECULE
(2S)-2-(3-benzoylphenyl)propanoic acid
   33    34     0     0     0
SMALL
USER_CHARGES

@<TRIPOS>ATOM
      1 C1          1.9222    0.4070   -2.1733 C.3       1 MOL        -0.0875
      2 C2          1.9315   -1.0136   -1.6031 C.3       1 MOL        -0.0566
      3 H1          2.8735   -1.4894   -1.9084 H         1 MOL         0.0889
      4 C3          1.8851   -1.0363   -0.1124 C.ar      1 MOL        -0.0893
      5 C4          2.9210   -1.6309    0.6081 C.ar      1 MOL        -0.0933
      6 C5          2.8783   -1.6520    2.0022 C.ar      1 MOL        -0.1335
      7 C6          1.7997   -1.0786    2.6757 C.ar      1 MOL        -0.0966
      8 C7          0.7638   -0.4841    1.9551 C.ar      1 MOL        -0.1520
      9 C8          0.8066   -0.4630    0.5610 C.ar      1 MOL        -0.0744
     10 C9         -0.3613    0.1123    2.6573 C.2       1 MOL         0.5875
     11 O1         -0.3285    1.3064    2.9903 O.2       1 MOL        -0.5220
     12 C10        -1.5891   -0.6637    3.0078 C.ar      1 MOL        -0.1732
     13 C11        -1.6860   -2.0107    2.6587 C.ar      1 MOL        -0.0798
     14 C12        -2.8327   -2.7350    2.9847 C.ar      1 MOL        -0.1470
     15 C13        -3.8825   -2.1122    3.6598 C.ar      1 MOL        -0.0994
     16 C14        -3.7856   -0.7651    4.0088 C.ar      1 MOL        -0.1470
     17 C15        -2.6389   -0.0409    3.6828 C.ar      1 MOL        -0.0798
     18 C16         0.8004   -1.8306   -2.2108 C.2       1 MOL         0.6334
     19 O2         -0.1119   -2.3530   -1.5834 O.2       1 MOL        -0.5345
     20 O3          0.9078   -1.9285   -3.5623 O.3       1 MOL        -0.6135
     21 H2          1.0073    0.9487   -1.9090 H         1 MOL         0.0512
     22 H3          2.7791    0.9849   -1.8101 H         1 MOL         0.0512
     23 H4          1.9728    0.3884   -3.2676 H         1 MOL         0.0512
     24 H5          3.7649   -2.0805    0.0915 H         1 MOL         0.1385
     25 H6          3.6846   -2.1151    2.5634 H         1 MOL         0.1383
     26 H7          1.7765   -1.1017    3.7622 H         1 MOL         0.1412
     27 H8         -0.0005   -0.0007   -0.0029 H         1 MOL         0.1450
     28 H9         -0.8742   -2.5059    2.1321 H         1 MOL         0.1493
     29 H10        -2.9080   -3.7839    2.7134 H         1 MOL         0.1374
     30 H11        -4.7755   -2.6756    3.9139 H         1 MOL         0.1351
     31 H12        -4.6036   -0.2806    4.5339 H         1 MOL         0.1374
     32 H13        -2.5742    1.0081    3.9604 H         1 MOL         0.1493
     33 H14         1.6796   -1.4695   -3.9568 H         1 MOL         0.4443
@<TRIPOS>BOND
     1    1    2 1
     2    2    3 1
     3    2    4 1
     4    4    9 ar
     5    4    5 ar
     6    5    6 ar
     7    6    7 ar
     8    7    8 ar
     9    8    9 ar
    10    8   10 1
    11   10   11 2
    12   10   12 1
    13   12   17 ar
    14   12   13 ar
    15   13   14 ar
    16   14   15 ar
    17   15   16 ar
    18   16   17 ar
    19    2   18 1
    20   18   19 2
    21   18   20 1
    22    1   21 1
    23    1   22 1
    24    1   23 1
    25    5   24 1
    26    6   25 1
    27    7   26 1
    28    9   27 1
    29   13   28 1
    30   14   29 1
    31   15   30 1
    32   16   31 1
    33   17   32 1
    34   20   33 1
