@<TRIPOS>MOLECULE
butyl nitrate
   17    16     0     0     0
SMALL
USER_CHARGES

@<TRIPOS>ATOM
      1 C1          0.3902   -1.0212   -0.0846 C.3       1 MOL        -0.1002
      2 C2         -0.5795   -2.0238    0.5201 C.3       1 MOL        -0.0752
      3 C3         -1.9307   -1.9925   -0.1885 C.3       1 MOL        -0.1156
      4 C4         -2.9047   -2.9950    0.4140 C.3       1 MOL         0.1310
      5 O1         -4.1377   -2.9158   -0.2877 O.3       1 MOL        -0.3454
      6 N1         -5.1269   -3.8164    0.1966 N.pl3     1 MOL         0.3737
      7 O2         -4.8203   -4.5461    1.1422 O.2       1 MOL        -0.1848
      8 O3         -6.1900   -3.7373   -0.4204 O.3       1 MOL        -0.1848
      9 H1          1.3562   -1.0504    0.4294 H         1 MOL         0.0385
     10 H2          0.5590   -1.2299   -1.1459 H         1 MOL         0.0385
     11 H3         -0.0104   -0.0065    0.0025 H         1 MOL         0.0385
     12 H4         -0.1467   -3.0287    0.4522 H         1 MOL         0.0460
     13 H5         -0.7117   -1.7988    1.5848 H         1 MOL         0.0460
     14 H6         -2.3650   -0.9865   -0.1342 H         1 MOL         0.0619
     15 H7         -1.8040   -2.2065   -1.2572 H         1 MOL         0.0619
     16 H8         -2.5191   -4.0157    0.3260 H         1 MOL         0.0850
     17 H9         -3.0903   -2.7736    1.4699 H         1 MOL         0.0850
@<TRIPOS>BOND
     1    1    2 1
     2    2    3 1
     3    3    4 1
     4    4    5 1
     5    5    6 1
     6    6    7 2
     7    6    8 1
     8    1    9 1
     9    1   10 1
    10    1   11 1
    11    2   12 1
    12    2   13 1
    13    3   14 1
    14    3   15 1
    15    4   16 1
    16    4   17 1
