@<TRIPOS>MOLECULE
o-xylene
   18    18     0     0     0
SMALL
USER_CHARGES

@<TRIPOS>ATOM
      1 C1          1.9532   -1.0258   -1.6043 C.3       1 MOL        -0.0540
      2 C2          1.8851   -1.0363   -0.1124 C.ar      1 MOL        -0.0752
      3 C3          2.9210   -1.6309    0.6081 C.ar      1 MOL        -0.1289
      4 C4          2.8783   -1.6520    2.0022 C.ar      1 MOL        -0.1309
      5 C5          1.7997   -1.0786    2.6757 C.ar      1 MOL        -0.1309
      6 C6          0.7638   -0.4841    1.9551 C.ar      1 MOL        -0.1289
      7 C7          0.8066   -0.4630    0.5610 C.ar      1 MOL        -0.0752
      8 C8         -0.3140    0.1791   -0.1889 C.3       1 MOL        -0.0539
      9 H1          2.4668   -0.1232   -1.9493 H         1 MOL         0.0433
     10 H2          2.4911   -1.9036   -1.9773 H         1 MOL         0.0433
     11 H3          0.9495   -1.0512   -2.0416 H         1 MOL         0.0433
     12 H4          3.7658   -2.0800    0.0928 H         1 MOL         0.1292
     13 H5          3.6853   -2.1141    2.5633 H         1 MOL         0.1298
     14 H6          1.7666   -1.0951    3.7611 H         1 MOL         0.1298
     15 H7         -0.0720   -0.0399    2.4893 H         1 MOL         0.1292
     16 H8         -0.1027    1.2424   -0.3508 H         1 MOL         0.0433
     17 H9         -0.4641   -0.3000   -1.1643 H         1 MOL         0.0433
     18 H10        -1.2602    0.0901    0.3594 H         1 MOL         0.0433
@<TRIPOS>BOND
     1    1    2 1
     2    2    7 ar
     3    2    3 ar
     4    3    4 ar
     5    4    5 ar
     6    5    6 ar
     7    6    7 ar
     8    7    8 1
     9    1    9 1
    10    1   10 1
    11    1   11 1
    12    3   12 1
    13    4   13 1
    14    5   14 1
    15    6   15 1
    16    8   16 1
    17    8   17 1
    18    8   18 1
