@<TRIPOS>MOLECULE
isopropyl acetate
   17    16     0     0     0
SMALL
USER_CHARGES

@<TRIPOS>ATOM
      1 C1          1.0765    0.0499    0.1958 C.3       1 MOL        -0.1062
      2 C2          1.3532    0.9191    1.4130 C.3       1 MOL         0.1382
      3 C3          2.8427    1.0382    1.6976 C.3       1 MOL        -0.1062
      4 O1          0.8123    2.2184    1.1940 O.3       1 MOL        -0.4389
      5 C4          0.3746    2.8740    2.3101 C.2       1 MOL         0.6334
      6 O2          0.4075    2.4483    3.4568 O.2       1 MOL        -0.5436
      7 C5         -0.1643    4.2196    1.9295 C.3       1 MOL        -0.1510
      8 H1          0.0028   -0.0291    0.0000 H         1 MOL         0.0462
      9 H2          1.5641    0.4693   -0.6907 H         1 MOL         0.0462
     10 H3          1.4833   -0.9585    0.3305 H         1 MOL         0.0462
     11 H4          0.8468    0.4961    2.2868 H         1 MOL         0.0694
     12 H5          3.0308    1.6651    2.5746 H         1 MOL         0.0462
     13 H6          3.3614    1.4749    0.8374 H         1 MOL         0.0462
     14 H7          3.2912    0.0533    1.8684 H         1 MOL         0.0462
     15 H8         -1.2320    4.1429    1.7097 H         1 MOL         0.0759
     16 H9          0.3805    4.6064    1.0646 H         1 MOL         0.0759
     17 H10        -0.0293    4.9136    2.7642 H         1 MOL         0.0759
@<TRIPOS>BOND
     1    1    2 1
     2    2    3 1
     3    2    4 1
     4    4    5 1
     5    5    6 2
     6    5    7 1
     7    1    8 1
     8    1    9 1
     9    1   10 1
    10    2   11 1
    11    3   12 1
    12    3   13 1
    13    3   14 1
    14    7   15 1
    15    7   16 1
    16    7   17 1
