@<TRIPOS>MOLECULE
N-methyl-N-(2,2,2-trifluoroethyl)aniline
   23    23     0     0     0
SMALL
USER_CHARGES

@<TRIPOS>ATOM
      1 C1          1.1034   -1.9184   -2.3120 C.3       1 MOL         0.2087
      2 N1          1.9290   -1.0140   -1.5220 N.pl3     1 MOL        -0.7057
      3 C2          2.7910   -0.0762   -2.2303 C.3       1 MOL         0.2168
      4 C3          4.1456   -0.6732   -2.4727 C.3       1 MOL         0.5747
      5 F1          4.0229   -1.7941   -3.2177 F         1 MOL        -0.2407
      6 F2          4.9553    0.1755   -3.1413 F         1 MOL        -0.2407
      7 F3          4.7569   -1.0143   -1.3184 F         1 MOL        -0.2407
      8 C4          1.8851   -1.0363   -0.1124 C.ar      1 MOL         0.1866
      9 C5          2.9370   -0.4950    0.6266 C.ar      1 MOL        -0.1838
     10 C6          2.8932   -0.5160    2.0206 C.ar      1 MOL        -0.0938
     11 C7          1.7976   -1.0783    2.6756 C.ar      1 MOL        -0.1645
     12 C8          0.7457   -1.6197    1.9365 C.ar      1 MOL        -0.0938
     13 C9          0.7895   -1.5987    0.5425 C.ar      1 MOL        -0.1838
     14 H1          0.5129   -2.5603   -1.6531 H         1 MOL         0.0442
     15 H2          1.7332   -2.5490   -2.9455 H         1 MOL         0.0442
     16 H3          0.4231   -1.3486   -2.9506 H         1 MOL         0.0442
     17 H4          2.2863    0.1646   -3.1632 H         1 MOL         0.0840
     18 H5          2.8515    0.8164   -1.6118 H         1 MOL         0.0840
     19 H6          3.7950   -0.0535    0.1264 H         1 MOL         0.1315
     20 H7          3.7116   -0.0937    2.5967 H         1 MOL         0.1317
     21 H8          1.7632   -1.0954    3.7610 H         1 MOL         0.1338
     22 H9         -0.1079   -2.0566    2.4465 H         1 MOL         0.1317
     23 H10        -0.0357   -2.0233   -0.0238 H         1 MOL         0.1315
@<TRIPOS>BOND
     1    1    2 1
     2    2    3 1
     3    3    4 1
     4    4    5 1
     5    4    6 1
     6    4    7 1
     7    2    8 1
     8    8   13 ar
     9    8    9 ar
    10    9   10 ar
    11   10   11 ar
    12   11   12 ar
    13   12   13 ar
    14    1   14 1
    15    1   15 1
    16    1   16 1
    17    3   17 1
    18    3   18 1
    19    9   19 1
    20   10   20 1
    21   11   21 1
    22   12   22 1
    23   13   23 1
