@<TRIPOS>MOLECULE
trimethyl phosphate
   17    16     0     0     0
SMALL
USER_CHARGES

@<TRIPOS>ATOM
      1 C1          1.0022   -0.2850   -0.3279 C.3       1 MOL         0.1496
      2 O1          1.0804   -0.1386   -1.7355 O.3       1 MOL        -0.5662
      3 P1          2.4477   -0.5829   -2.4828 P.3       1 MOL         1.5997
      4 O2          2.8147   -2.0294   -2.3083 O.2       1 MOL        -0.7840
      5 O3          2.1854   -0.1335   -4.0172 O.3       1 MOL        -0.5662
      6 C2          3.2018   -0.3765   -4.9748 C.3       1 MOL         0.1496
      7 O4          3.5625    0.4610   -1.9406 O.3       1 MOL        -0.5662
      8 C3          3.4017    1.8520   -2.1603 C.3       1 MOL         0.1496
      9 H1          0.0244    0.0561    0.0209 H         1 MOL         0.0483
     10 H2          1.7944    0.3010    0.1448 H         1 MOL         0.0483
     11 H3          1.1301   -1.3396   -0.0726 H         1 MOL         0.0483
     12 H4          2.8729   -0.0183   -5.9528 H         1 MOL         0.0483
     13 H5          3.4125   -1.4475   -5.0177 H         1 MOL         0.0483
     14 H6          4.1049    0.1600   -4.6763 H         1 MOL         0.0483
     15 H7          4.2476    2.3889   -1.7255 H         1 MOL         0.0483
     16 H8          2.4681    2.1868   -1.7026 H         1 MOL         0.0483
     17 H9          3.3669    2.0386   -3.2357 H         1 MOL         0.0483
@<TRIPOS>BOND
     1    1    2 1
     2    2    3 1
     3    3    4 2
     4    3    5 1
     5    5    6 1
     6    3    7 1
     7    7    8 1
     8    1    9 1
     9    1   10 1
    10    1   11 1
    11    6   12 1
    12    6   13 1
    13    6   14 1
    14    8   15 1
    15    8   16 1
    16    8   17 1
