@<TRIPOS>MOLECULE
1,2-bis(trifluoromethyl)benzene
   18    18     0     0     0
SMALL
USER_CHARGES

@<TRIPOS>ATOM
      1 C1          1.8851   -1.0363   -0.1124 C.ar      1 MOL        -0.1051
      2 C2          2.9210   -1.6309    0.6081 C.ar      1 MOL        -0.1050
      3 C3          2.8783   -1.6520    2.0022 C.ar      1 MOL        -0.0934
      4 C4          1.7997   -1.0786    2.6757 C.ar      1 MOL        -0.1175
      5 C5          0.7638   -0.4841    1.9551 C.ar      1 MOL        -0.1175
      6 C6          0.8066   -0.4630    0.5610 C.ar      1 MOL        -0.0934
      7 C7         -0.4009    0.1365    2.6541 C.3       1 MOL         0.6862
      8 F1         -0.3281    0.0532    4.0148 F         1 MOL        -0.2272
      9 F2         -0.5525    1.4661    2.3847 F         1 MOL        -0.2272
     10 F3         -1.5865   -0.4456    2.3129 F         1 MOL        -0.2272
     11 C8          1.7761   -1.1133    4.1685 C.3       1 MOL         0.6862
     12 F4          2.8633   -1.7304    4.7171 F         1 MOL        -0.2272
     13 F5          1.7407    0.1252    4.7416 F         1 MOL        -0.2272
     14 F6          0.6901   -1.7769    4.6593 F         1 MOL        -0.2272
     15 H1          1.9184   -1.0206   -1.1979 H         1 MOL         0.1504
     16 H2          3.7604   -2.0780    0.0837 H         1 MOL         0.1504
     17 H3          3.6901   -2.1181    2.5545 H         1 MOL         0.1611
     18 H4          0.0045   -0.0023   -0.0096 H         1 MOL         0.1611
@<TRIPOS>BOND
     1    1    6 ar
     2    1    2 ar
     3    2    3 ar
     4    3    4 ar
     5    4    5 ar
     6    5    6 ar
     7    5    7 1
     8    7    8 1
     9    7    9 1
    10    7   10 1
    11    4   11 1
    12   11   12 1
    13   11   13 1
    14   11   14 1
    15    1   15 1
    16    2   16 1
    17    3   17 1
    18    6   18 1
