@<TRIPOS>MOLECULE
2,2,4-trimethylpentane
   26    25     0     0     0
SMALL
USER_CHARGES

@<TRIPOS>ATOM
      1 C1          1.2356    1.7418   -0.0832 C.3       1 MOL        -0.0949
      2 C2          0.2970    1.0738    0.9283 C.3       1 MOL        -0.0577
      3 C3          1.1404    0.2818    1.9326 C.3       1 MOL        -0.0949
      4 C4         -0.7192    0.1699    0.1915 C.3       1 MOL        -0.0653
      5 C5         -0.1380   -0.9954   -0.6605 C.3       1 MOL        -0.0485
      6 C6          1.1916   -1.4945   -0.0656 C.3       1 MOL        -0.0883
      7 C7         -1.1476   -2.1616   -0.6240 C.3       1 MOL        -0.0883
      8 C8          0.0843   -0.5953   -2.1254 C.3       1 MOL        -0.0883
      9 H1          0.6677    2.3194   -0.8203 H         1 MOL         0.0337
     10 H2          1.9373    2.4209    0.4131 H         1 MOL         0.0337
     11 H3          1.8166    0.9901   -0.6281 H         1 MOL         0.0337
     12 H4         -0.2206    1.8725    1.4687 H         1 MOL         0.0507
     13 H5          0.5084   -0.2144    2.6775 H         1 MOL         0.0337
     14 H6          1.7228   -0.4921    1.4206 H         1 MOL         0.0337
     15 H7          1.8469    0.9217    2.4662 H         1 MOL         0.0337
     16 H8         -1.3995   -0.2775    0.9300 H         1 MOL         0.0354
     17 H9         -1.3573    0.7976   -0.4456 H         1 MOL         0.0354
     18 H10         1.6195   -2.3153   -0.6492 H         1 MOL         0.0336
     19 H11         1.0505   -1.8649    0.9565 H         1 MOL         0.0336
     20 H12         1.9338   -0.6894   -0.0255 H         1 MOL         0.0336
     21 H13        -0.7880   -3.0144   -1.2108 H         1 MOL         0.0336
     22 H14        -2.1178   -1.8588   -1.0339 H         1 MOL         0.0336
     23 H15        -1.3152   -2.5115    0.4010 H         1 MOL         0.0336
     24 H16         0.4935   -1.4316   -2.7042 H         1 MOL         0.0336
     25 H17         0.7946    0.2328   -2.2154 H         1 MOL         0.0336
     26 H18        -0.8563   -0.2959   -2.6004 H         1 MOL         0.0336
@<TRIPOS>BOND
     1    1    2 1
     2    2    3 1
     3    2    4 1
     4    4    5 1
     5    5    6 1
     6    5    7 1
     7    5    8 1
     8    1    9 1
     9    1   10 1
    10    1   11 1
    11    2   12 1
    12    3   13 1
    13    3   14 1
    14    3   15 1
    15    4   16 1
    16    4   17 1
    17    6   18 1
    18    6   19 1
    19    6   20 1
    20    7   21 1
    21    7   22 1
    22    7   23 1
    23    8   24 1
    24    8   25 1
    25    8   26 1
