@<TRIPOS>MOLECULE
heptan-4-one
   22    21     0     0     0
SMALL
USER_CHARGES

@<TRIPOS>ATOM
      1 C1          1.0145    0.3942    0.1164 C.3       1 MOL        -0.0928
      2 C2          1.1174    1.2152    1.3913 C.3       1 MOL        -0.0760
      3 C3          2.5198    1.7872    1.5770 C.3       1 MOL        -0.1795
      4 C4          2.6506    2.6141    2.8467 C.2       1 MOL         0.5608
      5 O1          1.7088    2.7842    3.6191 O.2       1 MOL        -0.5306
      6 C5          4.0251    3.2153    3.0973 C.3       1 MOL        -0.1795
      7 C6          4.0829    4.0303    4.3860 C.3       1 MOL        -0.0760
      8 C7          5.4659    4.6189    4.6117 C.3       1 MOL        -0.0928
      9 H1          0.0055   -0.0118   -0.0083 H         1 MOL         0.0338
     10 H2          1.2400    1.0169   -0.7550 H         1 MOL         0.0338
     11 H3          1.7222   -0.4409    0.1295 H         1 MOL         0.0338
     12 H4          0.8535    0.5855    2.2493 H         1 MOL         0.0533
     13 H5          0.3831    2.0289    1.3579 H         1 MOL         0.0533
     14 H6          2.7748    2.4314    0.7281 H         1 MOL         0.0625
     15 H7          3.2508    0.9727    1.6292 H         1 MOL         0.0625
     16 H8          4.2743    3.8529    2.2418 H         1 MOL         0.0625
     17 H9          4.7484    2.3936    3.1427 H         1 MOL         0.0625
     18 H10         3.3462    4.8417    4.3488 H         1 MOL         0.0533
     19 H11         3.8150    3.3981    5.2409 H         1 MOL         0.0533
     20 H12         5.4980    5.2016    5.5380 H         1 MOL         0.0338
     21 H13         6.2105    3.8201    4.6870 H         1 MOL         0.0338
     22 H14         5.7532    5.2740    3.7829 H         1 MOL         0.0338
@<TRIPOS>BOND
     1    1    2 1
     2    2    3 1
     3    3    4 1
     4    4    5 2
     5    4    6 1
     6    6    7 1
     7    7    8 1
     8    1    9 1
     9    1   10 1
    10    1   11 1
    11    2   12 1
    12    2   13 1
    13    3   14 1
    14    3   15 1
    15    6   16 1
    16    6   17 1
    17    7   18 1
    18    7   19 1
    19    8   20 1
    20    8   21 1
    21    8   22 1
