@<TRIPOS>MOLECULE
buta-1,3-diene
   10     9     0     0     0
SMALL
USER_CHARGES

@<TRIPOS>ATOM
      1 C1          0.2089    0.2287    1.0398 C.2       1 MOL        -0.2088
      2 C2         -0.4860   -0.3695    2.0139 C.2       1 MOL        -0.1370
      3 C3         -1.5320   -1.3323    1.7662 C.2       1 MOL        -0.1370
      4 C4         -2.2266   -1.9301    2.7407 C.2       1 MOL        -0.2088
      5 H1          0.9916    0.9500    1.2505 H         1 MOL         0.1122
      6 H2          0.0000    0.0000    0.0000 H         1 MOL         0.1122
      7 H3         -0.2558   -0.1234    3.0471 H         1 MOL         0.1214
      8 H4         -1.7615   -1.5793    0.7331 H         1 MOL         0.1214
      9 H5         -3.0093   -2.6515    2.5304 H         1 MOL         0.1122
     10 H6         -2.0174   -1.7016    3.7805 H         1 MOL         0.1122
@<TRIPOS>BOND
     1    1    2 2
     2    2    3 1
     3    3    4 2
     4    1    5 1
     5    1    6 1
     6    2    7 1
     7    3    8 1
     8    4    9 1
     9    4   10 1
