@<TRIPOS>MOLECULE
N-butylbutan-1-amine
   28    27     0     0     0
SMALL
USER_CHARGES

@<TRIPOS>ATOM
      1 C1         -6.1945    2.7181    2.8467 C.3       1 MOL        -0.0926
      2 C2         -4.8427    2.7601    2.1514 C.3       1 MOL        -0.0794
      3 C3         -3.7318    3.1844    3.1148 C.3       1 MOL        -0.0830
      4 C4         -2.3629    3.2356    2.4445 C.3       1 MOL         0.1714
      5 N1         -1.3228    3.6343    3.3520 N.3       1 MOL        -0.8344
      6 C5         -0.0169    3.6778    2.6921 C.3       1 MOL         0.1714
      7 C6          1.0763    4.0986    3.6528 C.3       1 MOL        -0.0830
      8 C7          2.4579    4.1555    2.9970 C.3       1 MOL        -0.0794
      9 C8          3.5272    4.5809    3.9911 C.3       1 MOL        -0.0926
     10 H1         -6.9837    2.4139    2.1517 H         1 MOL         0.0336
     11 H2         -6.1736    2.0001    3.6726 H         1 MOL         0.0336
     12 H3         -6.4560    3.6990    3.2562 H         1 MOL         0.0336
     13 H4         -4.6196    1.7687    1.7401 H         1 MOL         0.0391
     14 H5         -4.8995    3.4568    1.3076 H         1 MOL         0.0391
     15 H6         -3.9719    4.1653    3.5434 H         1 MOL         0.0460
     16 H7         -3.6862    2.4709    3.9465 H         1 MOL         0.0460
     17 H8         -2.3588    3.9338    1.6017 H         1 MOL         0.0255
     18 H9         -2.0942    2.2440    2.0666 H         1 MOL         0.0255
     19 H10        -1.2650    2.9765    4.1378 H         1 MOL         0.3578
     20 H11         0.1522    2.6880    2.2771 H         1 MOL         0.0255
     21 H12        -0.1230    4.3937    1.8810 H         1 MOL         0.0255
     22 H13         1.1065    3.4216    4.5155 H         1 MOL         0.0460
     23 H14         0.8182    5.0946    4.0328 H         1 MOL         0.0460
     24 H15         2.4436    4.8636    2.1603 H         1 MOL         0.0391
     25 H16         2.7242    3.1744    2.5880 H         1 MOL         0.0391
     26 H17         4.5122    4.6193    3.5150 H         1 MOL         0.0336
     27 H18         3.3021    5.5763    4.3869 H         1 MOL         0.0336
     28 H19         3.5793    3.8843    4.8338 H         1 MOL         0.0336
@<TRIPOS>BOND
     1    1    2 1
     2    2    3 1
     3    3    4 1
     4    4    5 1
     5    5    6 1
     6    6    7 1
     7    7    8 1
     8    8    9 1
     9    1   10 1
    10    1   11 1
    11    1   12 1
    12    2   13 1
    13    2   14 1
    14    3   15 1
    15    3   16 1
    16    4   17 1
    17    4   18 1
    18    5   19 1
    19    6   20 1
    20    6   21 1
    21    7   22 1
    22    7   23 1
    23    8   24 1
    24    8   25 1
    25    9   26 1
    26    9   27 1
    27    9   28 1
