@<TRIPOS>MOLECULE
5-bromo-6-methyl-3-[(1S)-1-methylpropyl]-1H-pyrimidine-2,4-dione
   27    27     0     0     0
SMALL
USER_CHARGES

@<TRIPOS>ATOM
      1 C1         -6.2539   -3.0926   -4.7227 C.3       1 MOL        -0.0920
      2 C2         -5.0417   -2.9107   -3.8182 C.3       1 MOL        -0.1015
      3 C3         -5.0559   -1.5706   -3.0716 C.3       1 MOL         0.1106
      4 H1         -5.0602   -0.7477   -3.7957 H         1 MOL         0.0890
      5 C4         -3.8264   -1.4337   -2.1796 C.3       1 MOL        -0.1095
      6 N1         -6.2615   -1.4221   -2.2638 N.am      1 MOL        -0.4781
      7 C5         -6.5157   -2.3600   -1.2534 C.2       1 MOL         0.7301
      8 O1         -5.7841   -3.3162   -0.9969 O.2       1 MOL        -0.5901
      9 C6         -7.7735   -2.1372   -0.4670 C.2       1 MOL        -0.2513
     10 C7         -8.5619   -1.0897   -0.7652 C.2       1 MOL         0.1388
     11 N2         -8.2259   -0.2257   -1.7803 N.am      1 MOL        -0.4669
     12 C8         -7.0956   -0.3296   -2.5689 C.2       1 MOL         0.8077
     13 O2         -6.8631    0.4864   -3.4644 O.2       1 MOL        -0.6397
     14 C9         -9.8501   -0.7304   -0.0748 C.3       1 MOL        -0.0907
     15 Br1        -8.1293   -3.3786    0.8917 Br        1 MOL        -0.0148
     16 H2         -6.2231   -4.0539   -5.2446 H         1 MOL         0.0352
     17 H3         -7.1735   -3.0630   -4.1295 H         1 MOL         0.0352
     18 H4         -6.3079   -2.2951   -5.4705 H         1 MOL         0.0352
     19 H5         -5.0263   -3.7333   -3.0929 H         1 MOL         0.0616
     20 H6         -4.1308   -2.9983   -4.4234 H         1 MOL         0.0616
     21 H7         -3.8337   -0.4781   -1.6453 H         1 MOL         0.0510
     22 H8         -3.7808   -2.2402   -1.4391 H         1 MOL         0.0510
     23 H9         -2.9076   -1.4813   -2.7745 H         1 MOL         0.0510
     24 H10        -8.8575    0.5490   -1.9648 H         1 MOL         0.3539
     25 H11        -9.6370   -0.0643    0.7560 H         1 MOL         0.0742
     26 H12       -10.3251   -1.6361    0.2913 H         1 MOL         0.0742
     27 H13       -10.5102   -0.2375   -0.7827 H         1 MOL         0.0742
@<TRIPOS>BOND
     1    1    2 1
     2    2    3 1
     3    3    4 1
     4    3    5 1
     5    3    6 1
     6    6   12 am
     7    6    7 am
     8    7    8 2
     9    7    9 1
    10    9   10 2
    11   10   11 1
    12   11   12 am
    13   12   13 2
    14   10   14 1
    15    9   15 1
    16    1   16 1
    17    1   17 1
    18    1   18 1
    19    2   19 1
    20    2   20 1
    21    5   21 1
    22    5   22 1
    23    5   23 1
    24   11   24 1
    25   14   25 1
    26   14   26 1
    27   14   27 1
