@<TRIPOS>MOLECULE
[2-(dimethylamino)-5,6-dimethyl-pyrimidin-4-yl] N,N-dimethylcarbamate
   35    35     0     0     0
SMALL
USER_CHARGES

@<TRIPOS>ATOM
      1 C1          4.4470   -1.3105    1.1860 C.3       1 MOL        -0.0271
      2 C2          4.1119   -2.6614    1.7097 C.ar      1 MOL        -0.3591
      3 C3          4.9009   -3.7665    1.4635 C.ar      1 MOL         0.4899
      4 N1          4.6231   -5.0037    1.9246 N.ar      1 MOL        -0.7584
      5 C4          3.4987   -5.0969    2.6597 C.ar      1 MOL         0.9009
      6 N2          2.6487   -4.0992    2.9690 N.ar      1 MOL        -0.7539
      7 C5          2.9871   -2.8897    2.4759 C.ar      1 MOL         0.6992
      8 O1          2.1245   -1.8313    2.7795 O.3       1 MOL        -0.4908
      9 C6          1.9787   -1.5859    4.1480 C.2       1 MOL         0.7614
     10 O2          2.5550   -2.2390    5.0173 O.2       1 MOL        -0.5539
     11 N3          1.1091   -0.5214    4.4100 N.am      1 MOL        -0.4650
     12 C7          0.8352   -0.1211    5.7828 C.3       1 MOL         0.0920
     13 C8          0.4332    0.2493    3.3713 C.3       1 MOL         0.0920
     14 N4          3.1763   -6.3776    3.1593 N.pl3     1 MOL        -0.7580
     15 C9          4.0331   -7.5109    2.8768 C.3       1 MOL         0.2063
     16 C10         1.9926   -6.5700    3.9719 C.3       1 MOL         0.2063
     17 C11         6.1440   -3.6408    0.6457 C.3       1 MOL        -0.1552
     18 H1          5.0721   -0.7741    1.9064 H         1 MOL         0.0451
     19 H2          4.9849   -1.3823    0.2349 H         1 MOL         0.0451
     20 H3          3.5390   -0.7267    1.0011 H         1 MOL         0.0451
     21 H4          1.5587    0.6309    6.0864 H         1 MOL         0.0477
     22 H5          0.9140   -0.9891    6.4325 H         1 MOL         0.0477
     23 H6         -0.1690    0.2906    5.8434 H         1 MOL         0.0477
     24 H7         -0.5216   -0.2175    3.1495 H         1 MOL         0.0477
     25 H8          1.0527    0.2646    2.4795 H         1 MOL         0.0477
     26 H9          0.2749    1.2631    3.7265 H         1 MOL         0.0477
     27 H10         3.6212   -8.4045    3.3440 H         1 MOL         0.0460
     28 H11         5.0308   -7.3239    3.2725 H         1 MOL         0.0460
     29 H12         4.0963   -7.6633    1.7999 H         1 MOL         0.0460
     30 H13         1.9147   -7.6176    4.2599 H         1 MOL         0.0460
     31 H14         1.1077   -6.2852    3.4037 H         1 MOL         0.0460
     32 H15         2.0586   -5.9534    4.8676 H         1 MOL         0.0460
     33 H16         7.0012   -3.4126    1.2898 H         1 MOL         0.0586
     34 H17         6.3547   -4.5684    0.0992 H         1 MOL         0.0586
     35 H18         6.0474   -2.8444   -0.1028 H         1 MOL         0.0586
@<TRIPOS>BOND
     1    1    2 1
     2    2    7 ar
     3    2    3 ar
     4    3    4 ar
     5    4    5 ar
     6    5    6 ar
     7    6    7 ar
     8    7    8 1
     9    8    9 1
    10    9   10 2
    11    9   11 am
    12   11   12 1
    13   11   13 1
    14    5   14 1
    15   14   15 1
    16   14   16 1
    17    3   17 1
    18    1   18 1
    19    1   19 1
    20    1   20 1
    21   12   21 1
    22   12   22 1
    23   12   23 1
    24   13   24 1
    25   13   25 1
    26   13   26 1
    27   15   27 1
    28   15   28 1
    29   15   29 1
    30   16   30 1
    31   16   31 1
    32   16   32 1
    33   17   33 1
    34   17   34 1
    35   17   35 1
