@<TRIPOS>MOLECULE
methylcyclohexane
   21    21     0     0     0
SMALL
USER_CHARGES

@<TRIPOS>ATOM
      1 C1          3.3738   -3.4625   -2.4153 C.3       1 MOL        -0.0889
      2 C2          2.1480   -2.7023   -1.9123 C.3       1 MOL        -0.0661
      3 C3          2.0621   -2.7649   -0.3812 C.3       1 MOL        -0.0724
      4 C4          0.8735   -1.9668    0.1497 C.3       1 MOL        -0.0757
      5 C5          0.8995   -0.5234   -0.3432 C.3       1 MOL        -0.0759
      6 C6          0.9867   -0.4515   -1.8645 C.3       1 MOL        -0.0757
      7 C7          2.1754   -1.2472   -2.3989 C.3       1 MOL        -0.0724
      8 H1          3.3524   -4.4996   -2.0673 H         1 MOL         0.0332
      9 H2          3.4016   -3.4666   -3.5090 H         1 MOL         0.0332
     10 H3          4.2928   -2.9953   -2.0490 H         1 MOL         0.0332
     11 H4          1.2555   -3.1888   -2.3280 H         1 MOL         0.0449
     12 H5          1.9731   -3.8076   -0.0536 H         1 MOL         0.0386
     13 H6          2.9864   -2.3713    0.0610 H         1 MOL         0.0386
     14 H7         -0.0598   -2.4457   -0.1711 H         1 MOL         0.0379
     15 H8          0.8793   -1.9815    1.2456 H         1 MOL         0.0379
     16 H9         -0.0006   -0.0005   -0.0004 H         1 MOL         0.0384
     17 H10         1.7597   -0.0036    0.0962 H         1 MOL         0.0384
     18 H11         0.0599   -0.8421   -2.3025 H         1 MOL         0.0379
     19 H12         1.0718    0.5949   -2.1790 H         1 MOL         0.0379
     20 H13         2.1663   -1.2188   -3.4951 H         1 MOL         0.0386
     21 H14         3.1065   -0.7632   -2.0769 H         1 MOL         0.0386
@<TRIPOS>BOND
     1    1    2 1
     2    2    7 1
     3    2    3 1
     4    3    4 1
     5    4    5 1
     6    5    6 1
     7    6    7 1
     8    1    8 1
     9    1    9 1
    10    1   10 1
    11    2   11 1
    12    3   12 1
    13    3   13 1
    14    4   14 1
    15    4   15 1
    16    5   16 1
    17    5   17 1
    18    6   18 1
    19    6   19 1
    20    7   20 1
    21    7   21 1
