@<TRIPOS>MOLECULE
(2S,5S)-2,5-dimethyltetrahydrofuran
   19    19     0     0     0
SMALL
USER_CHARGES

@<TRIPOS>ATOM
      1 C1          2.3395   -0.5598   -0.6326 C.3       1 MOL        -0.0980
      2 C2          1.1657    0.1344    0.0305 C.3       1 MOL         0.1368
      3 H1          1.5064    0.6530    0.9347 H         1 MOL         0.0428
      4 C3          0.4379    1.1032   -0.8866 C.3       1 MOL        -0.1075
      5 C4         -0.9465    1.1034   -0.2868 C.3       1 MOL        -0.1075
      6 C5         -1.1147   -0.3595    0.0889 C.3       1 MOL         0.1368
      7 H2         -1.4442   -0.9383   -0.7823 H         1 MOL         0.0428
      8 O1          0.1931   -0.8409    0.4448 O.3       1 MOL        -0.4236
      9 C6         -2.0749   -0.5808    1.2417 C.3       1 MOL        -0.0979
     10 H3          2.0156   -1.0825   -1.5375 H         1 MOL         0.0434
     11 H4          3.1086    0.1668   -0.9110 H         1 MOL         0.0434
     12 H5          2.7867   -1.2918    0.0466 H         1 MOL         0.0434
     13 H6          0.9015    2.0933   -0.9108 H         1 MOL         0.0536
     14 H7          0.3962    0.7187   -1.9130 H         1 MOL         0.0536
     15 H8         -0.9637    1.7436    0.6036 H         1 MOL         0.0536
     16 H9         -1.7191    1.4555   -0.9759 H         1 MOL         0.0536
     17 H10        -2.1573   -1.6463    1.4683 H         1 MOL         0.0434
     18 H11        -3.0674   -0.2013    0.9875 H         1 MOL         0.0434
     19 H12        -1.7218   -0.0611    2.1354 H         1 MOL         0.0434
@<TRIPOS>BOND
     1    1    2 1
     2    2    3 1
     3    2    8 1
     4    2    4 1
     5    4    5 1
     6    5    6 1
     7    6    7 1
     8    6    8 1
     9    6    9 1
    10    1   10 1
    11    1   11 1
    12    1   12 1
    13    4   13 1
    14    4   14 1
    15    5   15 1
    16    5   16 1
    17    9   17 1
    18    9   18 1
    19    9   19 1
