@<TRIPOS>MOLECULE
dibromomethane
    5     4     0     0     0
SMALL
USER_CHARGES

@<TRIPOS>ATOM
      1 C1          0.1694   -0.0215    0.0448 C.3       1 MOL         0.0105
      2 Br1        -0.4991   -0.3017   -1.7476 Br        1 MOL        -0.1093
      3 Br2        -1.2000    0.5174    1.2987 Br        1 MOL        -0.1093
      4 H1          0.9257    0.7645    0.0074 H         1 MOL         0.1040
      5 H2          0.6041   -0.9587    0.3967 H         1 MOL         0.1040
@<TRIPOS>BOND
     1    1    2 1
     2    1    3 1
     3    1    4 1
     4    1    5 1
