@<TRIPOS>MOLECULE
3-methylbutan-1-ol
   18    17     0     0     0
SMALL
USER_CHARGES

@<TRIPOS>ATOM
      1 C1          0.1986   -1.0772    0.0118 C.3       1 MOL        -0.0907
      2 C2         -0.6860   -1.8165   -0.9949 C.3       1 MOL        -0.0650
      3 C3         -2.1575   -1.6366   -0.6192 C.3       1 MOL        -0.0907
      4 C4         -0.3808   -1.3238   -2.4187 C.3       1 MOL        -0.0812
      5 C5          1.0651   -1.5436   -2.8473 C.3       1 MOL         0.1329
      6 O1          1.2276   -1.0522   -4.1720 O.3       1 MOL        -0.6046
      7 H1          1.2578   -1.1944   -0.2408 H         1 MOL         0.0344
      8 H2          0.0483   -1.4576    1.0280 H         1 MOL         0.0344
      9 H3         -0.0261   -0.0053    0.0140 H         1 MOL         0.0344
     10 H4         -0.4442   -2.8850   -0.9331 H         1 MOL         0.0441
     11 H5         -2.8139   -2.1568   -1.3249 H         1 MOL         0.0344
     12 H6         -2.4319   -0.5761   -0.6219 H         1 MOL         0.0344
     13 H7         -2.3623   -2.0208    0.3846 H         1 MOL         0.0344
     14 H8         -0.6054   -0.2513   -2.4915 H         1 MOL         0.0546
     15 H9         -1.0486   -1.8096   -3.1423 H         1 MOL         0.0546
     16 H10         1.7537   -1.0033   -2.1901 H         1 MOL         0.0208
     17 H11         1.3258   -2.6057   -2.8462 H         1 MOL         0.0208
     18 H12         2.1546   -1.2059   -4.4150 H         1 MOL         0.3979
@<TRIPOS>BOND
     1    1    2 1
     2    2    3 1
     3    2    4 1
     4    4    5 1
     5    5    6 1
     6    1    7 1
     7    1    8 1
     8    1    9 1
     9    2   10 1
    10    3   11 1
    11    3   12 1
    12    3   13 1
    13    4   14 1
    14    4   15 1
    15    5   16 1
    16    5   17 1
    17    6   18 1
