@<TRIPOS>MOLECULE
ethanol
    9     8     0     0     0
SMALL
USER_CHARGES

@<TRIPOS>ATOM
      1 C1          1.0616   -0.2681   -0.0006 C.3       1 MOL        -0.0969
      2 C2          1.9101    0.9126   -0.4220 C.3       1 MOL         0.1298
      3 O1          1.5170    1.3236   -1.7228 O.3       1 MOL        -0.5995
      4 H1          1.3393   -0.6108    1.0001 H         1 MOL         0.0448
      5 H2         -0.0000   -0.0002   -0.0006 H         1 MOL         0.0448
      6 H3          1.1801   -1.0990   -0.7040 H         1 MOL         0.0448
      7 H4          2.9684    0.6361   -0.4446 H         1 MOL         0.0171
      8 H5          1.7730    1.7499    0.2687 H         1 MOL         0.0171
      9 H6          2.0787    2.0794   -1.9612 H         1 MOL         0.3979
@<TRIPOS>BOND
     1    1    2 1
     2    2    3 1
     3    1    4 1
     4    1    5 1
     5    1    6 1
     6    2    7 1
     7    2    8 1
     8    3    9 1
