@<TRIPOS>MOLECULE
1,3-dichloropropane
   11    10     0     0     0
SMALL
USER_CHARGES

@<TRIPOS>ATOM
      1 C1         -0.1595   -0.1129    0.6213 C.3       1 MOL        -0.0990
      2 C2          0.9879    0.8165    0.2315 C.3       1 MOL         0.0341
      3 Cl1         0.4346    2.1798   -0.7673 Cl        1 MOL        -0.1963
      4 C3         -0.9083   -0.7601   -0.5415 C.3       1 MOL         0.0341
      5 Cl2         0.1609   -1.7584   -1.5531 Cl        1 MOL        -0.1963
      6 H1          0.2397   -0.9015    1.2716 H         1 MOL         0.0641
      7 H2         -0.8815    0.4470    1.2291 H         1 MOL         0.0641
      8 H3          1.4431    1.2412    1.1317 H         1 MOL         0.0738
      9 H4          1.7711    0.2902   -0.3211 H         1 MOL         0.0738
     10 H5         -1.3844   -0.0162   -1.1862 H         1 MOL         0.0738
     11 H6         -1.6932   -1.4183   -0.1559 H         1 MOL         0.0738
@<TRIPOS>BOND
     1    1    2 1
     2    2    3 1
     3    1    4 1
     4    4    5 1
     5    1    6 1
     6    1    7 1
     7    2    8 1
     8    2    9 1
     9    4   10 1
    10    4   11 1
