@<TRIPOS>MOLECULE
ethoxyethane
   15    14     0     0     0
SMALL
USER_CHARGES

@<TRIPOS>ATOM
      1 C1          0.9167    1.4498    0.5861 C.3       1 MOL        -0.0963
      2 C2          1.9101    0.9126   -0.4220 C.3       1 MOL         0.1292
      3 O1          1.5170    1.3236   -1.7228 O.3       1 MOL        -0.4235
      4 C3          2.4157    0.8471   -2.7161 C.3       1 MOL         0.1292
      5 C4          1.9417    1.3181   -4.0738 C.3       1 MOL        -0.0963
      6 H1          1.1907    1.1506    1.6015 H         1 MOL         0.0447
      7 H2          0.8722    2.5429    0.5394 H         1 MOL         0.0447
      8 H3         -0.0912    1.0808    0.3689 H         1 MOL         0.0447
      9 H4          1.9355   -0.1807   -0.3905 H         1 MOL         0.0224
     10 H5          2.9125    1.3005   -0.2176 H         1 MOL         0.0224
     11 H6          3.4145    1.2363   -2.5006 H         1 MOL         0.0224
     12 H7          2.4381   -0.2453   -2.6734 H         1 MOL         0.0224
     13 H8          2.6128    0.9678   -4.8630 H         1 MOL         0.0447
     14 H9          0.9313    0.9500   -4.2797 H         1 MOL         0.0447
     15 H10         1.8955    2.4116   -4.1090 H         1 MOL         0.0447
@<TRIPOS>BOND
     1    1    2 1
     2    2    3 1
     3    3    4 1
     4    4    5 1
     5    1    6 1
     6    1    7 1
     7    1    8 1
     8    2    9 1
     9    2   10 1
    10    4   11 1
    11    4   12 1
    12    5   13 1
    13    5   14 1
    14    5   15 1
