@<TRIPOS>MOLECULE
2-methylprop-1-ene
   12    11     0     0     0
SMALL
USER_CHARGES

@<TRIPOS>ATOM
      1 C1          1.7629   -2.7440    1.2188 C.3       1 MOL        -0.0632
      2 C2          1.1097   -1.7854    0.2679 C.2       1 MOL        -0.1102
      3 C3          0.4692   -0.6874    0.6960 C.2       1 MOL        -0.2320
      4 C4          1.2144   -2.1247   -1.1894 C.3       1 MOL        -0.0632
      5 H1          1.0536   -3.5210    1.5215 H         1 MOL         0.0410
      6 H2          2.6230   -3.2250    0.7420 H         1 MOL         0.0410
      7 H3          2.1197   -2.2465    2.1268 H         1 MOL         0.0410
      8 H4         -0.0000   -0.0002    0.0000 H         1 MOL         0.1112
      9 H5          0.3992   -0.4504    1.7525 H         1 MOL         0.1112
     10 H6          0.3664   -2.7453   -1.4968 H         1 MOL         0.0410
     11 H7          1.2136   -1.2111   -1.7929 H         1 MOL         0.0410
     12 H8          2.1323   -2.6760   -1.4201 H         1 MOL         0.0410
@<TRIPOS>BOND
     1    1    2 1
     2    2    3 2
     3    2    4 1
     4    1    5 1
     5    1    6 1
     6    1    7 1
     7    3    8 1
     8    3    9 1
     9    4   10 1
    10    4   11 1
    11    4   12 1
