@<TRIPOS>MOLECULE
cyclohepta-1,3,5-triene
   15    15     0     0     0
SMALL
USER_CHARGES

@<TRIPOS>ATOM
      1 C1          0.5614    1.5769    0.2583 C.3       1 MOL        -0.0096
      2 C2          1.5396    0.4464    0.1718 C.2       1 MOL        -0.1412
      3 C3          1.3583   -0.8473   -0.1189 C.2       1 MOL        -0.1336
      4 C4          0.1445   -1.5187   -0.4994 C.2       1 MOL        -0.1195
      5 C5         -1.1162   -1.0896   -0.3789 C.2       1 MOL        -0.1195
      6 C6         -1.5893    0.1560    0.1627 C.2       1 MOL        -0.1336
      7 C7         -0.8983    1.2763    0.4044 C.2       1 MOL        -0.1412
      8 H1          0.7033    2.2359   -0.6062 H         1 MOL         0.0482
      9 H2          0.8459    2.1649    1.1414 H         1 MOL         0.0482
     10 H3          2.5678    0.7448    0.3795 H         1 MOL         0.1134
     11 H4          2.2393   -1.4875   -0.1212 H         1 MOL         0.1180
     12 H5          0.2977   -2.5085   -0.9267 H         1 MOL         0.1195
     13 H6         -1.9068   -1.7570   -0.7182 H         1 MOL         0.1195
     14 H7         -2.6623    0.1814    0.3458 H         1 MOL         0.1180
     15 H8         -1.4821    2.1232    0.7670 H         1 MOL         0.1134
@<TRIPOS>BOND
     1    1    7 1
     2    1    2 1
     3    2    3 2
     4    3    4 1
     5    4    5 2
     6    5    6 1
     7    6    7 2
     8    1    8 1
     9    1    9 1
    10    2   10 1
    11    3   11 1
    12    4   12 1
    13    5   13 1
    14    6   14 1
    15    7   15 1
