@<TRIPOS>MOLECULE
1-ethyl-2-methyl-benzene
   21    21     0     0     0
SMALL
USER_CHARGES

@<TRIPOS>ATOM
      1 C1          1.2974   -2.2574   -2.2094 C.3       1 MOL        -0.0892
      2 C2          1.9532   -1.0258   -1.6043 C.3       1 MOL        -0.0394
      3 C3          1.8851   -1.0363   -0.1124 C.ar      1 MOL        -0.0757
      4 C4          2.9210   -1.6309    0.6081 C.ar      1 MOL        -0.1250
      5 C5          2.8783   -1.6520    2.0022 C.ar      1 MOL        -0.1327
      6 C6          1.7997   -1.0786    2.6757 C.ar      1 MOL        -0.1301
      7 C7          0.7638   -0.4841    1.9551 C.ar      1 MOL        -0.1302
      8 C8          0.8066   -0.4630    0.5610 C.ar      1 MOL        -0.0732
      9 C9         -0.3140    0.1791   -0.1889 C.3       1 MOL        -0.0554
     10 H1          1.3525   -2.2402   -3.3031 H         1 MOL         0.0359
     11 H2          0.2418   -2.3026   -1.9238 H         1 MOL         0.0359
     12 H3          1.7822   -3.1764   -1.8629 H         1 MOL         0.0359
     13 H4          1.4681   -0.1207   -1.9897 H         1 MOL         0.0463
     14 H5          3.0004   -0.9680   -1.9257 H         1 MOL         0.0463
     15 H6          3.7658   -2.0800    0.0928 H         1 MOL         0.1299
     16 H7          3.6853   -2.1141    2.5633 H         1 MOL         0.1298
     17 H8          1.7666   -1.0951    3.7611 H         1 MOL         0.1291
     18 H9         -0.0720   -0.0399    2.4893 H         1 MOL         0.1295
     19 H10        -0.1027    1.2424   -0.3508 H         1 MOL         0.0441
     20 H11        -0.4641   -0.3000   -1.1643 H         1 MOL         0.0441
     21 H12        -1.2602    0.0901    0.3594 H         1 MOL         0.0441
@<TRIPOS>BOND
     1    1    2 1
     2    2    3 1
     3    3    8 ar
     4    3    4 ar
     5    4    5 ar
     6    5    6 ar
     7    6    7 ar
     8    7    8 ar
     9    8    9 1
    10    1   10 1
    11    1   11 1
    12    1   12 1
    13    2   13 1
    14    2   14 1
    15    4   15 1
    16    5   16 1
    17    6   17 1
    18    7   18 1
    19    9   19 1
    20    9   20 1
    21    9   21 1
