@<TRIPOS>MOLECULE
3,5-dichloro-2,6-dimethoxy-phenol
   21    21     0     0     0
SMALL
USER_CHARGES

@<TRIPOS>ATOM
      1 C1          1.3125   -2.1087   -2.1510 C.3       1 MOL         0.1116
      2 O1          1.9133   -1.0096   -1.4763 O.3       1 MOL        -0.3262
      3 C2          1.8851   -1.0363   -0.1124 C.ar      1 MOL         0.0445
      4 C3          2.9210   -1.6309    0.6081 C.ar      1 MOL         0.0383
      5 C4          2.8783   -1.6520    2.0022 C.ar      1 MOL        -0.1445
      6 C5          1.7997   -1.0786    2.6757 C.ar      1 MOL         0.0383
      7 C6          0.7638   -0.4841    1.9551 C.ar      1 MOL         0.0445
      8 C7          0.8066   -0.4630    0.5610 C.ar      1 MOL         0.1225
      9 O2         -0.2061    0.1188   -0.1434 O.3       1 MOL        -0.4760
     10 O3         -0.2978    0.0810    2.6001 O.3       1 MOL        -0.3262
     11 C8         -1.4136   -0.7636    2.8697 C.3       1 MOL         0.1116
     12 Cl1         1.7740   -1.1189    4.4004 Cl        1 MOL        -0.0613
     13 Cl2         4.2666   -2.3491   -0.1982 Cl        1 MOL        -0.0613
     14 H1          1.4014   -1.9670   -3.2309 H         1 MOL         0.0465
     15 H2          0.2594   -2.1798   -1.8676 H         1 MOL         0.0465
     16 H3          1.8282   -3.0277   -1.8627 H         1 MOL         0.0465
     17 H4          3.6862   -2.1159    2.5642 H         1 MOL         0.1667
     18 H5         -0.0314    0.0528   -1.0948 H         1 MOL         0.4385
     19 H6         -2.1810   -0.1858    3.3840 H         1 MOL         0.0465
     20 H7         -1.0861   -1.5995    3.4876 H         1 MOL         0.0465
     21 H8         -1.8036   -1.1348    1.9225 H         1 MOL         0.0465
@<TRIPOS>BOND
     1    1    2 1
     2    2    3 1
     3    3    8 ar
     4    3    4 ar
     5    4    5 ar
     6    5    6 ar
     7    6    7 ar
     8    7    8 ar
     9    8    9 1
    10    7   10 1
    11   10   11 1
    12    6   12 1
    13    4   13 1
    14    1   14 1
    15    1   15 1
    16    1   16 1
    17    5   17 1
    18    9   18 1
    19   11   19 1
    20   11   20 1
    21   11   21 1
