@<TRIPOS>MOLECULE
[(E)-2-chloro-1-(2,4-dichlorophenyl)vinyl] diethyl phosphate
   34    34     0     0     0
SMALL
USER_CHARGES

@<TRIPOS>ATOM
      1 C1          0.9200    3.5298    0.2258 C.3       1 MOL        -0.0967
      2 C2          0.1568    2.2635    0.5508 C.3       1 MOL         0.1619
      3 O1          0.6019    1.2243   -0.3035 O.3       1 MOL        -0.5704
      4 P1         -0.0696   -0.2420   -0.1493 P.3       1 MOL         1.6073
      5 O2          0.4572   -1.2870   -1.0911 O.2       1 MOL        -0.7823
      6 O3          0.1214   -0.5727    1.4254 O.3       1 MOL        -0.5704
      7 C3          1.3836   -1.0414    1.8673 C.3       1 MOL         0.1619
      8 C4          1.3277   -1.2815    3.3618 C.3       1 MOL        -0.0967
      9 O4         -1.6550    0.0614   -0.2763 O.3       1 MOL        -0.4737
     10 C5         -2.6035   -0.9022   -0.2029 C.2       1 MOL         0.1859
     11 C6         -2.3281   -2.2158   -0.0163 C.2       1 MOL        -0.1567
     12 Cl1        -3.5503   -3.4167    0.0729 Cl        1 MOL        -0.0668
     13 C7         -4.0091   -0.4305   -0.3201 C.ar      1 MOL        -0.0522
     14 C8         -4.5706   -0.3711   -1.5957 C.ar      1 MOL        -0.0804
     15 C9         -5.8859    0.0634   -1.7591 C.ar      1 MOL        -0.1329
     16 C10        -6.6398    0.4385   -0.6470 C.ar      1 MOL         0.0372
     17 C11        -6.0782    0.3791    0.6285 C.ar      1 MOL        -0.1294
     18 C12        -4.7629   -0.0554    0.7919 C.ar      1 MOL         0.0564
     19 Cl2        -4.1161   -0.1113    2.3947 Cl        1 MOL        -0.0625
     20 Cl3        -8.2623    0.9751   -0.8499 Cl        1 MOL        -0.0811
     21 H1          0.5999    4.3543    0.8690 H         1 MOL         0.0501
     22 H2          1.9962    3.3764    0.3570 H         1 MOL         0.0501
     23 H3          0.7645    3.8165   -0.8196 H         1 MOL         0.0501
     24 H4         -0.9161    2.4117    0.3961 H         1 MOL         0.0467
     25 H5          0.3315    1.9656    1.5889 H         1 MOL         0.0467
     26 H6          1.6218   -1.9708    1.3397 H         1 MOL         0.0467
     27 H7          2.1445   -0.2911    1.6288 H         1 MOL         0.0467
     28 H8          2.2886   -1.6449    3.7365 H         1 MOL         0.0501
     29 H9          1.0681   -0.3586    3.8907 H         1 MOL         0.0501
     30 H10         0.5529   -2.0162    3.6050 H         1 MOL         0.0501
     31 H11        -1.3411   -2.6481    0.0843 H         1 MOL         0.1836
     32 H12        -3.9979   -0.6603   -2.4739 H         1 MOL         0.1509
     33 H13        -6.3104    0.1047   -2.7589 H         1 MOL         0.1541
     34 H14        -6.6690    0.6703    1.4945 H         1 MOL         0.1651
@<TRIPOS>BOND
     1    1    2 1
     2    2    3 1
     3    3    4 1
     4    4    5 2
     5    4    6 1
     6    6    7 1
     7    7    8 1
     8    4    9 1
     9    9   10 1
    10   10   11 2
    11   11   12 1
    12   10   13 1
    13   13   18 ar
    14   13   14 ar
    15   14   15 ar
    16   15   16 ar
    17   16   17 ar
    18   17   18 ar
    19   18   19 1
    20   16   20 1
    21    1   21 1
    22    1   22 1
    23    1   23 1
    24    2   24 1
    25    2   25 1
    26    7   26 1
    27    7   27 1
    28    8   28 1
    29    8   29 1
    30    8   30 1
    31   11   31 1
    32   14   32 1
    33   15   33 1
    34   17   34 1
