@<TRIPOS>MOLECULE
trifluoromethylbenzene
   15    15     0     0     0
SMALL
USER_CHARGES

@<TRIPOS>ATOM
      1 C1          1.8851   -1.0363   -0.1124 C.ar      1 MOL        -0.1009
      2 C2          2.9210   -1.6309    0.6081 C.ar      1 MOL        -0.1341
      3 C3          2.8783   -1.6520    2.0022 C.ar      1 MOL        -0.0815
      4 C4          1.7997   -1.0786    2.6757 C.ar      1 MOL        -0.1677
      5 C5          0.7638   -0.4841    1.9551 C.ar      1 MOL        -0.0815
      6 C6          0.8066   -0.4630    0.5610 C.ar      1 MOL        -0.1341
      7 C7          1.7548   -1.1014    4.1663 C.3       1 MOL         0.6860
      8 F1          2.8336   -1.7145    4.7372 F         1 MOL        -0.2375
      9 F2          1.7117    0.1416    4.7310 F         1 MOL        -0.2375
     10 F3          0.6614   -1.7607    4.6486 F         1 MOL        -0.2375
     11 H1          1.9176   -1.0210   -1.1980 H         1 MOL         0.1392
     12 H2          3.7604   -2.0783    0.0841 H         1 MOL         0.1422
     13 H3          3.6899   -2.1173    2.5553 H         1 MOL         0.1514
     14 H4         -0.0804   -0.0348    2.4713 H         1 MOL         0.1514
     15 H5         -0.0006   -0.0010    0.0001 H         1 MOL         0.1422
@<TRIPOS>BOND
     1    1    6 ar
     2    1    2 ar
     3    2    3 ar
     4    3    4 ar
     5    4    5 ar
     6    5    6 ar
     7    4    7 1
     8    7    8 1
     9    7    9 1
    10    7   10 1
    11    1   11 1
    12    2   12 1
    13    3   13 1
    14    5   14 1
    15    6   15 1
