@<TRIPOS>MOLECULE
2,2,5-trimethylhexane
   29    28     0     0     0
SMALL
USER_CHARGES

@<TRIPOS>ATOM
      1 C1         -0.8525   -1.8166    2.1089 C.3       1 MOL        -0.0899
      2 C2         -0.9804   -1.9028    0.5873 C.3       1 MOL        -0.0670
      3 C3         -0.6681   -3.3284    0.1243 C.3       1 MOL        -0.0899
      4 C4         -0.0585   -0.9038   -0.1416 C.3       1 MOL        -0.0764
      5 C5         -0.3453    0.5609    0.2207 C.3       1 MOL        -0.0679
      6 C6          0.5518    1.6167   -0.4823 C.3       1 MOL        -0.0552
      7 C7          0.3502    1.4791   -2.0046 C.3       1 MOL        -0.0862
      8 C8          0.1626    3.0444   -0.0653 C.3       1 MOL        -0.0862
      9 C9          2.0392    1.3844   -0.1679 C.3       1 MOL        -0.0862
     10 H1         -1.0702   -0.8075    2.4710 H         1 MOL         0.0330
     11 H2          0.1556   -2.0887    2.4389 H         1 MOL         0.0330
     12 H3         -1.5618   -2.4939    2.5972 H         1 MOL         0.0330
     13 H4         -2.0211   -1.6834    0.3168 H         1 MOL         0.0450
     14 H5         -0.7520   -3.4204   -0.9639 H         1 MOL         0.0330
     15 H6          0.3483   -3.6177    0.4119 H         1 MOL         0.0330
     16 H7         -1.3587   -4.0460    0.5798 H         1 MOL         0.0330
     17 H8          0.9859   -1.1460    0.0871 H         1 MOL         0.0404
     18 H9         -0.1897   -1.0441   -1.2202 H         1 MOL         0.0404
     19 H10        -0.2348    0.6846    1.3052 H         1 MOL         0.0395
     20 H11        -1.3969    0.7791   -0.0088 H         1 MOL         0.0395
     21 H12         0.9631    2.2043   -2.5519 H         1 MOL         0.0336
     22 H13         0.6272    0.4772   -2.3519 H         1 MOL         0.0336
     23 H14        -0.6956    1.6496   -2.2847 H         1 MOL         0.0336
     24 H15         0.7964    3.7874   -0.5620 H         1 MOL         0.0336
     25 H16        -0.8796    3.2695   -0.3141 H         1 MOL         0.0336
     26 H17         0.2735    3.1829    1.0164 H         1 MOL         0.0336
     27 H18         2.6692    2.1303   -0.6649 H         1 MOL         0.0336
     28 H19         2.3738    0.3926   -0.4880 H         1 MOL         0.0336
     29 H20         2.2289    1.4547    0.9095 H         1 MOL         0.0336
@<TRIPOS>BOND
     1    1    2 1
     2    2    3 1
     3    2    4 1
     4    4    5 1
     5    5    6 1
     6    6    7 1
     7    6    8 1
     8    6    9 1
     9    1   10 1
    10    1   11 1
    11    1   12 1
    12    2   13 1
    13    3   14 1
    14    3   15 1
    15    3   16 1
    16    4   17 1
    17    4   18 1
    18    5   19 1
    19    5   20 1
    20    7   21 1
    21    7   22 1
    22    7   23 1
    23    8   24 1
    24    8   25 1
    25    8   26 1
    26    9   27 1
    27    9   28 1
    28    9   29 1
