@<TRIPOS>MOLECULE
3-methoxyaniline
   18    18     0     0     0
SMALL
USER_CHARGES

@<TRIPOS>ATOM
      1 C1          3.0579   -1.6207   -2.0880 C.3       1 MOL         0.1116
      2 O1          1.9264   -1.0164   -1.4727 O.3       1 MOL        -0.3261
      3 C2          1.8851   -1.0363   -0.1124 C.ar      1 MOL         0.1568
      4 C3          2.9210   -1.6309    0.6081 C.ar      1 MOL        -0.2473
      5 C4          2.8783   -1.6520    2.0022 C.ar      1 MOL        -0.0612
      6 C5          1.7997   -1.0786    2.6757 C.ar      1 MOL        -0.2229
      7 C6          0.7638   -0.4841    1.9551 C.ar      1 MOL         0.1701
      8 C7          0.8066   -0.4630    0.5610 C.ar      1 MOL        -0.2217
      9 N1         -0.3267    0.0958    2.6360 N.pl3     1 MOL        -0.8215
     10 H1          2.9703   -1.5383   -3.1742 H         1 MOL         0.0442
     11 H2          3.1150   -2.6720   -1.7951 H         1 MOL         0.0442
     12 H3          3.9613   -1.1028   -1.7574 H         1 MOL         0.0442
     13 H4          3.7639   -2.0794    0.0894 H         1 MOL         0.1365
     14 H5          3.6847   -2.1151    2.5630 H         1 MOL         0.1294
     15 H6          1.7766   -1.0999    3.7623 H         1 MOL         0.1322
     16 H7          0.0020   -0.0002   -0.0056 H         1 MOL         0.1482
     17 H8         -0.3687    0.0327    3.6330 H         1 MOL         0.3916
     18 H9         -1.0851    0.4767    2.1070 H         1 MOL         0.3916
@<TRIPOS>BOND
     1    1    2 1
     2    2    3 1
     3    3    8 ar
     4    3    4 ar
     5    4    5 ar
     6    5    6 ar
     7    6    7 ar
     8    7    8 ar
     9    7    9 1
    10    1   10 1
    11    1   11 1
    12    1   12 1
    13    4   13 1
    14    5   14 1
    15    6   15 1
    16    8   16 1
    17    9   17 1
    18    9   18 1
