@<TRIPOS>MOLECULE
1,1-dioxido-2,3,4,5-tetrahydrothiophene
   15    15     0     0     0
SMALL
USER_CHARGES

@<TRIPOS>ATOM
      1 C1         -1.1168    1.4379   -0.1714 C.3       1 MOL        -0.0599
      2 C2          0.0306    1.3978   -1.1787 C.3       1 MOL        -0.0599
      3 C3          1.1320    0.5655   -0.5318 C.3       1 MOL        -0.3083
      4 S1          0.2815   -0.7350    0.3500 S.3       1 MOL         1.2097
      5 C4         -1.3468   -0.0047    0.2645 C.3       1 MOL        -0.3083
      6 O1          0.7258   -0.7266    1.7282 O.3       1 MOL        -0.6056
      7 O2          0.2937   -1.9349   -0.4607 O.3       1 MOL        -0.6056
      8 H1         -2.0227    1.8754   -0.6011 H         1 MOL         0.0624
      9 H2         -0.8252    2.0470    0.6929 H         1 MOL         0.0624
     10 H3         -0.3073    0.9159   -2.1042 H         1 MOL         0.0624
     11 H4          0.3854    2.4011   -1.4325 H         1 MOL         0.0624
     12 H5          1.8145    0.1314   -1.2652 H         1 MOL         0.1221
     13 H6          1.6921    1.1556    0.1995 H         1 MOL         0.1221
     14 H7         -1.9206   -0.5539   -0.4877 H         1 MOL         0.1221
     15 H8         -1.8381   -0.0759    1.2369 H         1 MOL         0.1221
@<TRIPOS>BOND
     1    1    5 1
     2    1    2 1
     3    2    3 1
     4    3    4 1
     5    4    5 1
     6    4    6 1
     7    4    7 1
     8    1    8 1
     9    1    9 1
    10    2   10 1
    11    2   11 1
    12    3   12 1
    13    3   13 1
    14    5   14 1
    15    5   15 1
