@<TRIPOS>MOLECULE
hept-1-yne
   19    18     0     0     0
SMALL
USER_CHARGES

@<TRIPOS>ATOM
      1 C1         -0.5087   -0.7852   -2.9688 C.3       1 MOL        -0.0921
      2 C2         -0.4724    0.1755   -1.7910 C.3       1 MOL        -0.0794
      3 C3          0.0088   -0.5187   -0.5171 C.3       1 MOL        -0.0796
      4 C4          0.0440    0.4506    0.6659 C.3       1 MOL        -0.0763
      5 C5          0.5253   -0.2434    1.9400 C.3       1 MOL        -0.0032
      6 C6          0.5574    0.6915    3.0731 C.1       1 MOL        -0.1374
      7 C7          0.5857    1.4526    4.0012 C.1       1 MOL        -0.1622
      8 H1         -0.8555   -0.2684   -3.8692 H         1 MOL         0.0335
      9 H2         -1.1888   -1.6203   -2.7732 H         1 MOL         0.0335
     10 H3          0.4865   -1.1928   -3.1733 H         1 MOL         0.0335
     11 H4          0.1909    1.0144   -2.0316 H         1 MOL         0.0394
     12 H5         -1.4752    0.5893   -1.6336 H         1 MOL         0.0394
     13 H6          1.0106   -0.9343   -0.6813 H         1 MOL         0.0393
     14 H7         -0.6558   -1.3594   -0.2835 H         1 MOL         0.0393
     15 H8         -0.9571    0.8705    0.8274 H         1 MOL         0.0465
     16 H9          0.7055    1.2943    0.4305 H         1 MOL         0.0465
     17 H10         1.5273   -0.6589    1.7808 H         1 MOL         0.0581
     18 H11        -0.1369   -1.0839    2.1783 H         1 MOL         0.0581
     19 H12         0.6113    2.1275    4.8246 H         1 MOL         0.1632
@<TRIPOS>BOND
     1    1    2 1
     2    2    3 1
     3    3    4 1
     4    4    5 1
     5    5    6 1
     6    6    7 3
     7    1    8 1
     8    1    9 1
     9    1   10 1
    10    2   11 1
    11    2   12 1
    12    3   13 1
    13    3   14 1
    14    4   15 1
    15    4   16 1
    16    5   17 1
    17    5   18 1
    18    7   19 1
