@<TRIPOS>MOLECULE
propan-1-amine
   13    12     0     0     0
SMALL
USER_CHARGES

@<TRIPOS>ATOM
      1 C1          0.9917    0.0882   -0.4552 C.3       1 MOL        -0.0881
      2 C2          1.2282    1.5173   -0.9225 C.3       1 MOL        -0.1227
      3 C3          2.6189    1.7221   -1.5111 C.3       1 MOL         0.1524
      4 N1          2.8340    3.0732   -1.9497 N.3       1 MOL        -0.9084
      5 H1         -0.0139   -0.0268   -0.0383 H         1 MOL         0.0345
      6 H2          1.0901   -0.6045   -1.2972 H         1 MOL         0.0345
      7 H3          1.7176   -0.2071    0.3087 H         1 MOL         0.0345
      8 H4          1.1032    2.1909   -0.0667 H         1 MOL         0.0358
      9 H5          0.4636    1.7859   -1.6611 H         1 MOL         0.0358
     10 H6          3.3808    1.5059   -0.7556 H         1 MOL         0.0511
     11 H7          2.7898    1.0607   -2.3663 H         1 MOL         0.0511
     12 H8          3.1171    3.7700   -1.2782 H         1 MOL         0.3446
     13 H9          2.5082    3.3526   -2.8621 H         1 MOL         0.3446
@<TRIPOS>BOND
     1    1    2 1
     2    2    3 1
     3    3    4 1
     4    1    5 1
     5    1    6 1
     6    1    7 1
     7    2    8 1
     8    2    9 1
     9    3   10 1
    10    3   11 1
    11    4   12 1
    12    4   13 1
