@<TRIPOS>MOLECULE
ethoxybenzene
   19    19     0     0     0
SMALL
USER_CHARGES

@<TRIPOS>ATOM
      1 C1          0.8495   -1.7229   -3.4870 C.3       1 MOL        -0.1038
      2 C2          0.6771   -1.0300   -2.1521 C.3       1 MOL         0.1262
      3 O1          1.9270   -1.0156   -1.4726 O.3       1 MOL        -0.3341
      4 C3          1.8851   -1.0363   -0.1124 C.ar      1 MOL         0.1196
      5 C4          2.9210   -1.6309    0.6081 C.ar      1 MOL        -0.1736
      6 C5          2.8783   -1.6520    2.0022 C.ar      1 MOL        -0.1028
      7 C6          1.7997   -1.0786    2.6757 C.ar      1 MOL        -0.1592
      8 C7          0.7638   -0.4841    1.9551 C.ar      1 MOL        -0.1028
      9 C8          0.8066   -0.4630    0.5610 C.ar      1 MOL        -0.1736
     10 H1         -0.0953   -1.7513   -4.0368 H         1 MOL         0.0479
     11 H2          1.5979   -1.2059   -4.0965 H         1 MOL         0.0479
     12 H3          1.2072   -2.7483   -3.3460 H         1 MOL         0.0479
     13 H4         -0.0534   -1.5617   -1.5352 H         1 MOL         0.0402
     14 H5          0.3419    0.0016   -2.2954 H         1 MOL         0.0402
     15 H6          3.7642   -2.0784    0.0892 H         1 MOL         0.1416
     16 H7          3.6852   -2.1140    2.5634 H         1 MOL         0.1322
     17 H8          1.7671   -1.0935    3.7610 H         1 MOL         0.1323
     18 H9         -0.0756   -0.0370    2.4799 H         1 MOL         0.1322
     19 H10        -0.0034    0.0014    0.0052 H         1 MOL         0.1416
@<TRIPOS>BOND
     1    1    2 1
     2    2    3 1
     3    3    4 1
     4    4    9 ar
     5    4    5 ar
     6    5    6 ar
     7    6    7 ar
     8    7    8 ar
     9    8    9 ar
    10    1   10 1
    11    1   11 1
    12    1   12 1
    13    2   13 1
    14    2   14 1
    15    5   15 1
    16    6   16 1
    17    7   17 1
    18    8   18 1
    19    9   19 1
