@<TRIPOS>MOLECULE
2-nitrophenol
   15    15     0     0     0
SMALL
USER_CHARGES

@<TRIPOS>ATOM
      1 C1          1.8851   -1.0363   -0.1124 C.ar      1 MOL        -0.1615
      2 C2          2.9210   -1.6309    0.6081 C.ar      1 MOL        -0.0640
      3 C3          2.8783   -1.6520    2.0022 C.ar      1 MOL        -0.2107
      4 C4          1.7997   -1.0786    2.6757 C.ar      1 MOL         0.1756
      5 C5          0.7638   -0.4841    1.9551 C.ar      1 MOL        -0.1848
      6 C6          0.8066   -0.4630    0.5610 C.ar      1 MOL        -0.0528
      7 N1         -0.3436    0.1049    2.6249 N.pl3     1 MOL         0.3223
      8 O1         -0.2857    1.3167    2.9414 O.2       1 MOL        -0.1916
      9 O2         -1.3453   -0.6049    2.8794 O.3       1 MOL        -0.1916
     10 O3          1.7803   -1.1121    4.0385 O.3       1 MOL        -0.4787
     11 H1          1.9185   -1.0196   -1.1979 H         1 MOL         0.1500
     12 H2          3.7605   -2.0781    0.0839 H         1 MOL         0.1445
     13 H3          3.6884   -2.1175    2.5574 H         1 MOL         0.1480
     14 H4          0.0064   -0.0028   -0.0139 H         1 MOL         0.1599
     15 H5          2.5726   -1.5601    4.3729 H         1 MOL         0.4353
@<TRIPOS>BOND
     1    1    6 ar
     2    1    2 ar
     3    2    3 ar
     4    3    4 ar
     5    4    5 ar
     6    5    6 ar
     7    5    7 1
     8    7    8 2
     9    7    9 1
    10    4   10 1
    11    1   11 1
    12    2   12 1
    13    3   13 1
    14    6   14 1
    15   10   15 1
