@<TRIPOS>MOLECULE
1-bromooctane
   26    25     0     0     0
SMALL
USER_CHARGES

@<TRIPOS>ATOM
      1 C1          4.3908    1.3492   -1.1542 C.3       1 MOL        -0.0924
      2 C2          2.9579    1.2149   -1.6472 C.3       1 MOL        -0.0793
      3 C3          2.0789    0.5030   -0.6181 C.3       1 MOL        -0.0792
      4 C4          0.6239    0.3425   -1.0676 C.3       1 MOL        -0.0782
      5 C5         -0.2559   -0.3698   -0.0379 C.3       1 MOL        -0.0786
      6 C6         -1.6964   -0.5028   -0.5379 C.3       1 MOL        -0.0812
      7 C7         -2.5787   -1.2144    0.4888 C.3       1 MOL        -0.0813
      8 C8         -4.0064   -1.3426   -0.0144 C.3       1 MOL        -0.0100
      9 Br1        -5.0958   -2.2519    1.3183 Br        1 MOL        -0.1777
     10 H1          5.0149    1.8594   -1.8949 H         1 MOL         0.0333
     11 H2          4.4196    1.9314   -0.2278 H         1 MOL         0.0333
     12 H3          4.8298    0.3669   -0.9522 H         1 MOL         0.0333
     13 H4          2.9535    0.6573   -2.5908 H         1 MOL         0.0383
     14 H5          2.5654    2.2155   -1.8569 H         1 MOL         0.0383
     15 H6          2.4893   -0.4965   -0.4275 H         1 MOL         0.0393
     16 H7          2.1119    1.0440    0.3355 H         1 MOL         0.0393
     17 H8          0.2000    1.3273   -1.2991 H         1 MOL         0.0399
     18 H9          0.6169   -0.2316   -2.0026 H         1 MOL         0.0399
     19 H10        -0.2553    0.1865    0.9059 H         1 MOL         0.0419
     20 H11         0.1537   -1.3656    0.1700 H         1 MOL         0.0419
     21 H12        -2.1057    0.4933   -0.7462 H         1 MOL         0.0417
     22 H13        -1.7080   -1.0617   -1.4816 H         1 MOL         0.0417
     23 H14        -2.5632   -0.6576    1.4342 H         1 MOL         0.0565
     24 H15        -2.1655   -2.2084    0.7013 H         1 MOL         0.0565
     25 H16        -4.4703   -0.3671   -0.1842 H         1 MOL         0.0714
     26 H17        -4.0668   -1.9404   -0.9279 H         1 MOL         0.0714
@<TRIPOS>BOND
     1    1    2 1
     2    2    3 1
     3    3    4 1
     4    4    5 1
     5    5    6 1
     6    6    7 1
     7    7    8 1
     8    8    9 1
     9    1   10 1
    10    1   11 1
    11    1   12 1
    12    2   13 1
    13    2   14 1
    14    3   15 1
    15    3   16 1
    16    4   17 1
    17    4   18 1
    18    5   19 1
    19    5   20 1
    20    6   21 1
    21    6   22 1
    22    7   23 1
    23    7   24 1
    24    8   25 1
    25    8   26 1
