@<TRIPOS>MOLECULE
1,2-dibromoethane
    8     7     0     0     0
SMALL
USER_CHARGES

@<TRIPOS>ATOM
      1 C1          0.2477   -0.5489   -0.4546 C.3       1 MOL        -0.0149
      2 C2         -0.2477    0.5488    0.4548 C.3       1 MOL        -0.0149
      3 Br1        -1.3633   -0.2201    1.8514 Br        1 MOL        -0.1620
      4 Br2         1.3635    0.2200   -1.8516 Br        1 MOL        -0.1620
      5 H1         -0.5696   -1.0719   -0.9597 H         1 MOL         0.0885
      6 H2          0.8672   -1.2796    0.0735 H         1 MOL         0.0885
      7 H3          0.5697    1.0718    0.9599 H         1 MOL         0.0885
      8 H4         -0.8670    1.2797   -0.0733 H         1 MOL         0.0885
@<TRIPOS>BOND
     1    1    2 1
     2    2    3 1
     3    1    4 1
     4    1    5 1
     5    1    6 1
     6    2    7 1
     7    2    8 1
