@<TRIPOS>MOLECULE
pentane
   17    16     0     0     0
SMALL
USER_CHARGES

@<TRIPOS>ATOM
      1 C1         -0.5110    0.9039   -0.3450 C.3       1 MOL        -0.0921
      2 C2         -0.5701    0.9512   -1.8635 C.3       1 MOL        -0.0795
      3 C3          0.8290    0.9520   -2.4788 C.3       1 MOL        -0.0790
      4 C4          0.7651    0.9996   -4.0051 C.3       1 MOL        -0.0795
      5 C5          2.1551    1.0005   -4.6212 C.3       1 MOL        -0.0921
      6 H1         -1.5168    0.9037    0.0869 H         1 MOL         0.0324
      7 H2          0.0341    1.7656    0.0533 H         1 MOL         0.0324
      8 H3          0.0012   -0.0049   -0.0138 H         1 MOL         0.0324
      9 H4         -1.1370    0.0868   -2.2283 H         1 MOL         0.0377
     10 H5         -1.1142    1.8507   -2.1742 H         1 MOL         0.0377
     11 H6          1.3706    0.0525   -2.1614 H         1 MOL         0.0384
     12 H7          1.3933    1.8162   -2.1076 H         1 MOL         0.0384
     13 H8          0.2054    0.1355   -4.3818 H         1 MOL         0.0377
     14 H9          0.2283    1.8995   -4.3275 H         1 MOL         0.0377
     15 H10         2.0999    1.0347   -5.7140 H         1 MOL         0.0324
     16 H11         2.6965    0.0928   -4.3368 H         1 MOL         0.0324
     17 H12         2.7352    1.8635   -4.2791 H         1 MOL         0.0324
@<TRIPOS>BOND
     1    1    2 1
     2    2    3 1
     3    3    4 1
     4    4    5 1
     5    1    6 1
     6    1    7 1
     7    1    8 1
     8    2    9 1
     9    2   10 1
    10    3   11 1
    11    3   12 1
    12    4   13 1
    13    4   14 1
    14    5   15 1
    15    5   16 1
    16    5   17 1
