@<TRIPOS>MOLECULE
1-chlorobutane
   14    13     0     0     0
SMALL
USER_CHARGES

@<TRIPOS>ATOM
      1 C1         -0.1172    0.5383    0.9457 C.3       1 MOL        -0.0922
      2 C2          0.5893   -0.2070    2.0669 C.3       1 MOL        -0.0807
      3 C3          0.4429    0.5211    3.4031 C.3       1 MOL        -0.0924
      4 C4          1.1538   -0.2334    4.5189 C.3       1 MOL         0.0397
      5 Cl1         0.9725    0.6284    6.0642 Cl        1 MOL        -0.2018
      6 H1         -0.0072    0.0100   -0.0067 H         1 MOL         0.0360
      7 H2         -1.1861    0.6264    1.1638 H         1 MOL         0.0360
      8 H3          0.2899    1.5476    0.8281 H         1 MOL         0.0360
      9 H4          1.6509   -0.3132    1.8149 H         1 MOL         0.0402
     10 H5          0.1717   -1.2176    2.1458 H         1 MOL         0.0402
     11 H6          0.8577    1.5330    3.3152 H         1 MOL         0.0561
     12 H7         -0.6216    0.6283    3.6460 H         1 MOL         0.0561
     13 H8          2.2246   -0.3257    4.3137 H         1 MOL         0.0635
     14 H9          0.7353   -1.2362    4.6468 H         1 MOL         0.0635
@<TRIPOS>BOND
     1    1    2 1
     2    2    3 1
     3    3    4 1
     4    4    5 1
     5    1    6 1
     6    1    7 1
     7    1    8 1
     8    2    9 1
     9    2   10 1
    10    3   11 1
    11    3   12 1
    12    4   13 1
    13    4   14 1
