@<TRIPOS>MOLECULE
phenoxybenzene
   23    24     0     0     0
SMALL
USER_CHARGES

@<TRIPOS>ATOM
      1 C1          1.8835   -1.0353   -0.1125 C.ar      1 MOL        -0.1451
      2 C2          3.0687   -0.9913    0.6217 C.ar      1 MOL        -0.1127
      3 C3          3.0268   -1.0130    2.0157 C.ar      1 MOL        -0.1505
      4 C4          1.7997   -1.0786    2.6757 C.ar      1 MOL         0.0984
      5 C5          0.6145   -1.1226    1.9415 C.ar      1 MOL        -0.1505
      6 C6          0.6564   -1.1010    0.5474 C.ar      1 MOL        -0.1127
      7 O1          1.7593   -1.0981    4.0359 O.3       1 MOL        -0.2544
      8 C7          2.6462   -1.9333    4.6944 C.ar      1 MOL         0.0984
      9 C8          3.3519   -1.4661    5.8032 C.ar      1 MOL        -0.1505
     10 C9          4.2451   -2.3073    6.4666 C.ar      1 MOL        -0.1127
     11 C10         4.4327   -3.6158    6.0212 C.ar      1 MOL        -0.1450
     12 C11         3.7270   -4.0830    4.9124 C.ar      1 MOL        -0.1127
     13 C12         2.8338   -3.2418    4.2490 C.ar      1 MOL        -0.1505
     14 H1          1.9165   -1.0190   -1.1979 H         1 MOL         0.1345
     15 H2          4.0239   -0.9404    0.1071 H         1 MOL         0.1346
     16 H3          3.9532   -0.9767    2.5825 H         1 MOL         0.1483
     17 H4         -0.3448   -1.1724    2.4495 H         1 MOL         0.1483
     18 H5         -0.2667   -1.1351   -0.0241 H         1 MOL         0.1346
     19 H6          3.2094   -0.4481    6.1553 H         1 MOL         0.1483
     20 H7          4.7939   -1.9440    7.3305 H         1 MOL         0.1346
     21 H8          5.1267   -4.2714    6.5386 H         1 MOL         0.1345
     22 H9          3.8727   -5.1024    4.5663 H         1 MOL         0.1346
     23 H10         2.2871   -3.6114    3.3858 H         1 MOL         0.1483
@<TRIPOS>BOND
     1    1    6 ar
     2    1    2 ar
     3    2    3 ar
     4    3    4 ar
     5    4    5 ar
     6    5    6 ar
     7    4    7 1
     8    7    8 1
     9    8   13 ar
    10    8    9 ar
    11    9   10 ar
    12   10   11 ar
    13   11   12 ar
    14   12   13 ar
    15    1   14 1
    16    2   15 1
    17    3   16 1
    18    5   17 1
    19    6   18 1
    20    9   19 1
    21   10   20 1
    22   11   21 1
    23   12   22 1
    24   13   23 1
