@<TRIPOS>MOLECULE
2-methylaniline
   17    17     0     0     0
SMALL
USER_CHARGES

@<TRIPOS>ATOM
      1 C1          1.9564   -1.0274   -1.6048 C.3       1 MOL        -0.0499
      2 C2          1.8851   -1.0363   -0.1124 C.ar      1 MOL        -0.1368
      3 C3          2.9210   -1.6309    0.6081 C.ar      1 MOL        -0.0935
      4 C4          2.8783   -1.6520    2.0022 C.ar      1 MOL        -0.1702
      5 C5          1.7997   -1.0786    2.6757 C.ar      1 MOL        -0.0965
      6 C6          0.7638   -0.4841    1.9551 C.ar      1 MOL        -0.1904
      7 C7          0.8066   -0.4630    0.5610 C.ar      1 MOL         0.1418
      8 N1         -0.2510    0.1431   -0.1522 N.pl3     1 MOL        -0.8233
      9 H1          2.4708   -0.1252   -1.9497 H         1 MOL         0.0410
     10 H2          2.4950   -1.9057   -1.9758 H         1 MOL         0.0410
     11 H3          0.9536   -1.0531   -2.0442 H         1 MOL         0.0410
     12 H4          3.7655   -2.0808    0.0930 H         1 MOL         0.1288
     13 H5          3.6848   -2.1151    2.5633 H         1 MOL         0.1302
     14 H6          1.7664   -1.0952    3.7611 H         1 MOL         0.1284
     15 H7         -0.0709   -0.0400    2.4913 H         1 MOL         0.1292
     16 H8         -0.1962    0.1993   -1.1481 H         1 MOL         0.3896
     17 H9         -0.9876    0.5875    0.3559 H         1 MOL         0.3896
@<TRIPOS>BOND
     1    1    2 1
     2    2    7 ar
     3    2    3 ar
     4    3    4 ar
     5    4    5 ar
     6    5    6 ar
     7    6    7 ar
     8    7    8 1
     9    1    9 1
    10    1   10 1
    11    1   11 1
    12    3   12 1
    13    4   13 1
    14    5   14 1
    15    6   15 1
    16    8   16 1
    17    8   17 1
