@<TRIPOS>MOLECULE
diethoxy-(ethylsulfanylmethylsulfanyl)-thioxo-$l^{5}-phosphane
   30    29     0     0     0
SMALL
USER_CHARGES

@<TRIPOS>ATOM
      1 C1         -2.0246    2.2461   -2.1268 C.3       1 MOL        -0.0957
      2 C2         -0.6380    2.2765   -1.5200 C.3       1 MOL         0.1358
      3 O1         -0.6840    1.6834   -0.2332 O.3       1 MOL        -0.4821
      4 P1          0.6724    1.5724    0.6709 P.3       1 MOL         0.8427
      5 S1          1.4880    3.3084    1.0816 S.2       1 MOL        -0.4873
      6 O2          0.0608    0.8350    1.9966 O.3       1 MOL        -0.4821
      7 C3         -0.9707    1.4464    2.7536 C.3       1 MOL         0.1358
      8 C4         -1.3351    0.5432    3.9132 C.3       1 MOL        -0.0957
      9 S2          1.9068    0.0994   -0.2400 S.3       1 MOL        -0.3450
     10 C5          0.9254   -1.4222   -0.2152 C.3       1 MOL         0.1573
     11 S3          1.8394   -2.7968   -0.9634 S.3       1 MOL        -0.2033
     12 C6          0.5908   -4.0896   -0.7649 C.3       1 MOL        -0.0283
     13 C7          1.0910   -5.4109   -1.3222 C.3       1 MOL        -0.0840
     14 H1         -2.0246    2.6974   -3.1229 H         1 MOL         0.0568
     15 H2         -2.3893    1.2167   -2.2050 H         1 MOL         0.0568
     16 H3         -2.7348    2.7881   -1.4935 H         1 MOL         0.0568
     17 H4         -0.2852    3.3073   -1.4206 H         1 MOL         0.0642
     18 H5          0.0656    1.7152   -2.1420 H         1 MOL         0.0642
     19 H6         -0.6148    2.4146    3.1198 H         1 MOL         0.0642
     20 H7         -1.8382    1.6065    2.1056 H         1 MOL         0.0642
     21 H8         -2.1302    0.9862    4.5194 H         1 MOL         0.0568
     22 H9         -1.6700   -0.4341    3.5503 H         1 MOL         0.0568
     23 H10        -0.4630    0.3640    4.5509 H         1 MOL         0.0568
     24 H11        -0.0004   -1.2527   -0.7715 H         1 MOL         0.0863
     25 H12         0.6807   -1.6661    0.8221 H         1 MOL         0.0863
     26 H13         0.3529   -4.1968    0.2996 H         1 MOL         0.0591
     27 H14        -0.3247   -3.7854   -1.2848 H         1 MOL         0.0591
     28 H15         0.3430   -6.2027   -1.2077 H         1 MOL         0.0479
     29 H16         1.3493   -5.3263   -2.3832 H         1 MOL         0.0479
     30 H17         1.9921   -5.7277   -0.7865 H         1 MOL         0.0479
@<TRIPOS>BOND
     1    1    2 1
     2    2    3 1
     3    3    4 1
     4    4    5 2
     5    4    6 1
     6    6    7 1
     7    7    8 1
     8    4    9 1
     9    9   10 1
    10   10   11 1
    11   11   12 1
    12   12   13 1
    13    1   14 1
    14    1   15 1
    15    1   16 1
    16    2   17 1
    17    2   18 1
    18    7   19 1
    19    7   20 1
    20    8   21 1
    21    8   22 1
    22    8   23 1
    23   10   24 1
    24   10   25 1
    25   12   26 1
    26   12   27 1
    27   13   28 1
    28   13   29 1
    29   13   30 1
