@<TRIPOS>MOLECULE
(1S,5R)-5-isopropenyl-2-methyl-cyclohex-2-en-1-ol
   27    27     0     0     0
SMALL
USER_CHARGES

@<TRIPOS>ATOM
      1 C1         -3.7292   -4.7832    2.2230 C.3       1 MOL        -0.0567
      2 C2         -2.7245   -3.8104    1.6754 C.2       1 MOL        -0.1089
      3 C3         -2.8633   -2.4847    1.8507 C.2       1 MOL        -0.1556
      4 C4         -1.9054   -1.4631    1.3105 C.3       1 MOL        -0.0425
      5 C5         -0.9333   -2.0298    0.2626 C.3       1 MOL        -0.0264
      6 H1         -1.4750   -2.1662   -0.6830 H         1 MOL         0.0658
      7 C6         -0.3992   -3.3941    0.7230 C.3       1 MOL        -0.1026
      8 C7         -1.5407   -4.3966    0.9428 C.3       1 MOL         0.1804
      9 H2         -1.1372   -5.2509    1.4993 H         1 MOL         0.0342
     10 O1         -1.9671   -4.8759   -0.3325 O.3       1 MOL        -0.5934
     11 C8          0.1867   -1.0688   -0.0014 C.2       1 MOL        -0.1083
     12 C9          1.0234   -0.6700    0.9687 C.2       1 MOL        -0.2259
     13 C10         0.3197   -0.5782   -1.4129 C.3       1 MOL        -0.0636
     14 H3         -3.4599   -5.0733    3.2421 H         1 MOL         0.0445
     15 H4         -3.7671   -5.6813    1.6001 H         1 MOL         0.0445
     16 H5         -4.7253   -4.3323    2.2372 H         1 MOL         0.0445
     17 H6         -3.7132   -2.0998    2.4084 H         1 MOL         0.1228
     18 H7         -2.4810   -0.6449    0.8594 H         1 MOL         0.0524
     19 H8         -1.3563   -1.0325    2.1579 H         1 MOL         0.0524
     20 H9          0.2998   -3.7911   -0.0245 H         1 MOL         0.0476
     21 H10         0.1611   -3.2714    1.6600 H         1 MOL         0.0476
     22 H11        -1.1954   -5.2992   -0.7380 H         1 MOL         0.3968
     23 H12         1.8307    0.0259    0.7665 H         1 MOL         0.1125
     24 H13         0.9204   -1.0300    1.9871 H         1 MOL         0.1125
     25 H14        -0.2710    0.3325   -1.5555 H         1 MOL         0.0418
     26 H15         1.3669   -0.3525   -1.6390 H         1 MOL         0.0418
     27 H16        -0.0269   -1.3183   -2.1420 H         1 MOL         0.0418
@<TRIPOS>BOND
     1    1    2 1
     2    2    8 1
     3    2    3 2
     4    3    4 1
     5    4    5 1
     6    5    6 1
     7    5    7 1
     8    7    8 1
     9    8    9 1
    10    8   10 1
    11    5   11 1
    12   11   12 2
    13   11   13 1
    14    1   14 1
    15    1   15 1
    16    1   16 1
    17    3   17 1
    18    4   18 1
    19    4   19 1
    20    7   20 1
    21    7   21 1
    22   10   22 1
    23   12   23 1
    24   12   24 1
    25   13   25 1
    26   13   26 1
    27   13   27 1
