@<TRIPOS>MOLECULE
hexyl acetate
   26    25     0     0     0
SMALL
USER_CHARGES

@<TRIPOS>ATOM
      1 C1          1.7561   -1.3904    0.8917 C.3       1 MOL        -0.0933
      2 C2          1.1577   -1.8697    2.2056 C.3       1 MOL        -0.0815
      3 C3         -0.1230   -1.1065    2.5457 C.3       1 MOL        -0.0791
      4 C4         -0.7660   -1.5523    3.8620 C.3       1 MOL        -0.0754
      5 C5         -2.0456   -0.7898    4.2020 C.3       1 MOL        -0.1163
      6 C6         -2.6476   -1.2671    5.5170 C.3       1 MOL         0.1398
      7 O1         -3.8301   -0.5236    5.7776 O.3       1 MOL        -0.4614
      8 C7         -4.4903   -0.8396    6.9332 C.2       1 MOL         0.6377
      9 O2         -4.1540   -1.6917    7.7442 O.2       1 MOL        -0.5139
     10 C8         -5.7100    0.0196    7.0756 C.3       1 MOL        -0.1618
     11 H1          2.6706   -1.9479    0.6661 H         1 MOL         0.0329
     12 H2          1.0549   -1.5384    0.0642 H         1 MOL         0.0329
     13 H3          2.0105   -0.3268    0.9409 H         1 MOL         0.0329
     14 H4          1.8950   -1.7365    3.0056 H         1 MOL         0.0378
     15 H5          0.9526   -2.9424    2.1254 H         1 MOL         0.0378
     16 H6         -0.8464   -1.2130    1.7282 H         1 MOL         0.0437
     17 H7          0.1084   -0.0368    2.6242 H         1 MOL         0.0437
     18 H8         -0.0356   -1.4015    4.6668 H         1 MOL         0.0414
     19 H9         -0.9747   -2.6284    3.8233 H         1 MOL         0.0414
     20 H10        -2.7918   -0.9089    3.4080 H         1 MOL         0.0503
     21 H11        -1.8415    0.2862    4.2659 H         1 MOL         0.0503
     22 H12        -2.9083   -2.3289    5.4642 H         1 MOL         0.0673
     23 H13        -1.9496   -1.1119    6.3459 H         1 MOL         0.0673
     24 H14        -6.5653   -0.4693    6.6028 H         1 MOL         0.0751
     25 H15        -5.5285    0.9989    6.6256 H         1 MOL         0.0751
     26 H16        -5.9322    0.1607    8.1373 H         1 MOL         0.0751
@<TRIPOS>BOND
     1    1    2 1
     2    2    3 1
     3    3    4 1
     4    4    5 1
     5    5    6 1
     6    6    7 1
     7    7    8 1
     8    8    9 2
     9    8   10 1
    10    1   11 1
    11    1   12 1
    12    1   13 1
    13    2   14 1
    14    2   15 1
    15    3   16 1
    16    3   17 1
    17    4   18 1
    18    4   19 1
    19    5   20 1
    20    5   21 1
    21    6   22 1
    22    6   23 1
    23   10   24 1
    24   10   25 1
    25   10   26 1
