@<TRIPOS>MOLECULE
biphenyl
   22    23     0     0     0
SMALL
USER_CHARGES

@<TRIPOS>ATOM
      1 C1          1.8851   -1.0363   -0.1124 C.ar      1 MOL        -0.1278
      2 C2          2.9210   -1.6309    0.6081 C.ar      1 MOL        -0.1305
      3 C3          2.8783   -1.6520    2.0022 C.ar      1 MOL        -0.1194
      4 C4          1.7997   -1.0786    2.6757 C.ar      1 MOL        -0.0355
      5 C5          0.7638   -0.4841    1.9551 C.ar      1 MOL        -0.1194
      6 C6          0.8066   -0.4630    0.5610 C.ar      1 MOL        -0.1305
      7 C7          1.7549   -1.1005    4.1216 C.ar      1 MOL        -0.0355
      8 C8          2.9406   -1.0882    4.8563 C.ar      1 MOL        -0.1194
      9 C9          2.8976   -1.1093    6.2503 C.ar      1 MOL        -0.1305
     10 C10         1.6689   -1.1428    6.9097 C.ar      1 MOL        -0.1276
     11 C11         0.4832   -1.1553    6.1751 C.ar      1 MOL        -0.1305
     12 C12         0.5262   -1.1342    4.7810 C.ar      1 MOL        -0.1194
     13 H1          1.9174   -1.0212   -1.1979 H         1 MOL         0.1309
     14 H2          3.7605   -2.0787    0.0844 H         1 MOL         0.1318
     15 H3          3.6927   -2.1196    2.5504 H         1 MOL         0.1342
     16 H4         -0.0840   -0.0332    2.4655 H         1 MOL         0.1342
     17 H5         -0.0009   -0.0015    0.0001 H         1 MOL         0.1318
     18 H6          3.9061   -1.0610    4.3567 H         1 MOL         0.1342
     19 H7          3.8210   -1.0986    6.8219 H         1 MOL         0.1318
     20 H8          1.6358   -1.1592    7.9952 H         1 MOL         0.1309
     21 H9         -0.4732   -1.1825    6.6889 H         1 MOL         0.1318
     22 H10        -0.4066   -1.1457    4.2224 H         1 MOL         0.1342
@<TRIPOS>BOND
     1    1    6 ar
     2    1    2 ar
     3    2    3 ar
     4    3    4 ar
     5    4    5 ar
     6    5    6 ar
     7    4    7 1
     8    7   12 ar
     9    7    8 ar
    10    8    9 ar
    11    9   10 ar
    12   10   11 ar
    13   11   12 ar
    14    1   13 1
    15    2   14 1
    16    3   15 1
    17    5   16 1
    18    6   17 1
    19    8   18 1
    20    9   19 1
    21   10   20 1
    22   11   21 1
    23   12   22 1
