@<TRIPOS>MOLECULE
methyl 4-nitrobenzoate
   20    20     0     0     0
SMALL
USER_CHARGES

@<TRIPOS>ATOM
      1 C1          0.5850   -1.0144   -3.5067 C.3       1 MOL         0.1228
      2 O1          0.6730   -1.0318   -2.0778 O.3       1 MOL        -0.4335
      3 C2          1.9299   -1.0146   -1.5658 C.2       1 MOL         0.6377
      4 O2          2.9710   -0.9861   -2.2035 O.2       1 MOL        -0.5179
      5 C3          1.8851   -1.0363   -0.1124 C.ar      1 MOL        -0.0904
      6 C4          2.9210   -1.6309    0.6081 C.ar      1 MOL        -0.0856
      7 C5          2.8783   -1.6520    2.0022 C.ar      1 MOL        -0.0827
      8 C6          1.7997   -1.0786    2.6757 C.ar      1 MOL        -0.1495
      9 C7          0.7638   -0.4841    1.9551 C.ar      1 MOL        -0.0827
     10 C8          0.8066   -0.4630    0.5610 C.ar      1 MOL        -0.0856
     11 N1          1.7568   -1.0999    4.0946 N.pl3     1 MOL         0.3091
     12 O3          0.7778   -0.5785    4.6814 O.2       1 MOL        -0.2008
     13 O4          2.6992   -1.6394    4.7235 O.3       1 MOL        -0.2008
     14 H1         -0.4653   -1.0305   -3.8080 H         1 MOL         0.0548
     15 H2          1.1058   -1.8840   -3.9153 H         1 MOL         0.0548
     16 H3          1.0550   -0.1017   -3.8806 H         1 MOL         0.0548
     17 H4          3.7663   -2.0802    0.0934 H         1 MOL         0.1696
     18 H5          3.6925   -2.1180    2.5519 H         1 MOL         0.1782
     19 H6         -0.0827   -0.0336    2.4672 H         1 MOL         0.1782
     20 H7         -0.0066    0.0020    0.0092 H         1 MOL         0.1696
@<TRIPOS>BOND
     1    1    2 1
     2    2    3 1
     3    3    4 2
     4    3    5 1
     5    5   10 ar
     6    5    6 ar
     7    6    7 ar
     8    7    8 ar
     9    8    9 ar
    10    9   10 ar
    11    8   11 1
    12   11   12 2
    13   11   13 1
    14    1   14 1
    15    1   15 1
    16    1   16 1
    17    6   17 1
    18    7   18 1
    19    9   19 1
    20   10   20 1
