@<TRIPOS>MOLECULE
imidazole
    9     9     0     0     0
SMALL
USER_CHARGES

@<TRIPOS>ATOM
      1 C1          0.6549   -0.7784   -0.3640 C.2       1 MOL        -0.2621
      2 C2          1.9499   -0.7740   -0.8259 C.2       1 MOL         0.2907
      3 N1          2.3537   -2.0366   -1.1813 N.2       1 MOL        -0.6651
      4 C3          1.3133   -2.8020   -0.9371 C.2       1 MOL         0.3808
      5 N2          0.2603   -2.0844   -0.4416 N.pl3     1 MOL        -0.3208
      6 H1          0.0003   -0.0000    0.0005 H         1 MOL         0.1769
      7 H2          2.6117    0.0744   -0.9217 H         1 MOL         0.0414
      8 H3          1.2583   -3.8695   -1.0948 H         1 MOL         0.0597
      9 H4         -0.6437   -2.4533   -0.1784 H         1 MOL         0.2984
@<TRIPOS>BOND
     1    1    5 1
     2    1    2 2
     3    2    3 1
     4    3    4 2
     5    4    5 1
     6    1    6 1
     7    2    7 1
     8    4    8 1
     9    5    9 1
