@<TRIPOS>MOLECULE
1,2-dimethoxybenzene
   20    20     0     0     0
SMALL
USER_CHARGES

@<TRIPOS>ATOM
      1 C1          1.3496   -2.1275   -2.1490 C.3       1 MOL         0.1154
      2 O1          1.9380   -1.0221   -1.4736 O.3       1 MOL        -0.3229
      3 C2          1.8851   -1.0363   -0.1124 C.ar      1 MOL         0.0899
      4 C3          2.9210   -1.6309    0.6081 C.ar      1 MOL        -0.1564
      5 C4          2.8783   -1.6520    2.0022 C.ar      1 MOL        -0.1283
      6 C5          1.7997   -1.0786    2.6757 C.ar      1 MOL        -0.1283
      7 C6          0.7638   -0.4841    1.9551 C.ar      1 MOL        -0.1564
      8 C7          0.8066   -0.4630    0.5610 C.ar      1 MOL         0.0899
      9 O2         -0.2120    0.1189   -0.1313 O.3       1 MOL        -0.3229
     10 C8         -1.2767    0.6818    0.6328 C.3       1 MOL         0.1155
     11 H1          1.4580   -1.9957   -3.2284 H         1 MOL         0.0423
     12 H2          0.2915   -2.1963   -1.8841 H         1 MOL         0.0423
     13 H3          1.8601   -3.0437   -1.8430 H         1 MOL         0.0423
     14 H4          3.7636   -2.0800    0.0898 H         1 MOL         0.1411
     15 H5          3.6855   -2.1140    2.5632 H         1 MOL         0.1344
     16 H6          1.7656   -1.0967    3.7611 H         1 MOL         0.1344
     17 H7         -0.0744   -0.0402    2.4854 H         1 MOL         0.1411
     18 H8         -2.0137    1.1083   -0.0465 H         1 MOL         0.0423
     19 H9         -0.8731    1.4499    1.2915 H         1 MOL         0.0423
     20 H10        -1.7334   -0.1107    1.2241 H         1 MOL         0.0423
@<TRIPOS>BOND
     1    1    2 1
     2    2    3 1
     3    3    8 ar
     4    3    4 ar
     5    4    5 ar
     6    5    6 ar
     7    6    7 ar
     8    7    8 ar
     9    8    9 1
    10    9   10 1
    11    1   11 1
    12    1   12 1
    13    1   13 1
    14    4   14 1
    15    5   15 1
    16    6   16 1
    17    7   17 1
    18   10   18 1
    19   10   19 1
    20   10   20 1
