@<TRIPOS>MOLECULE
N-ethylethanamine
   16    15     0     0     0
SMALL
USER_CHARGES

@<TRIPOS>ATOM
      1 C1          1.5859   -1.2295    2.8925 C.3       1 MOL        -0.0960
      2 C2          1.2109   -0.9764    1.4719 C.3       1 MOL         0.1692
      3 N1          2.3152   -1.2363    0.5901 N.3       1 MOL        -0.8354
      4 C3          1.9593   -0.9912   -0.8085 C.3       1 MOL         0.1692
      5 C4          3.1193   -1.2688   -1.6871 C.3       1 MOL        -0.0960
      6 H1          0.7413   -1.0302    3.5610 H         1 MOL         0.0385
      7 H2          1.9188   -2.2641    3.0298 H         1 MOL         0.0385
      8 H3          2.4102   -0.5671    3.1827 H         1 MOL         0.0385
      9 H4          0.9122    0.0671    1.3343 H         1 MOL         0.0250
     10 H5          0.3825   -1.6231    1.1681 H         1 MOL         0.0250
     11 H6          3.1109   -0.6341    0.8301 H         1 MOL         0.3581
     12 H7          1.1216   -1.6458   -1.0312 H         1 MOL         0.0250
     13 H8          1.6449    0.0467   -0.8672 H         1 MOL         0.0250
     14 H9          2.8740   -1.0913   -2.7398 H         1 MOL         0.0385
     15 H10         3.9848   -0.6571   -1.4100 H         1 MOL         0.0385
     16 H11         3.4009   -2.3230   -1.5788 H         1 MOL         0.0385
@<TRIPOS>BOND
     1    1    2 1
     2    2    3 1
     3    3    4 1
     4    4    5 1
     5    1    6 1
     6    1    7 1
     7    1    8 1
     8    2    9 1
     9    2   10 1
    10    3   11 1
    11    4   12 1
    12    4   13 1
    13    5   14 1
    14    5   15 1
    15    5   16 1
