@<TRIPOS>MOLECULE
hept-1-ene
   21    20     0     0     0
SMALL
USER_CHARGES

@<TRIPOS>ATOM
      1 C1         -5.9537    0.4469   -2.6215 C.3       1 MOL        -0.0923
      2 C2         -5.7469   -0.4650   -1.4227 C.3       1 MOL        -0.0803
      3 C3         -4.5293   -0.0416   -0.6001 C.3       1 MOL        -0.0790
      4 C4         -4.3270   -0.9644    0.6057 C.3       1 MOL        -0.0754
      5 C5         -3.1162   -0.5779    1.4610 C.3       1 MOL        -0.0533
      6 C6         -2.9185   -1.4823    2.6419 C.2       1 MOL        -0.1625
      7 C7         -1.8164   -2.2114    2.8494 C.2       1 MOL        -0.2238
      8 H1         -6.8269    0.1368   -3.2045 H         1 MOL         0.0328
      9 H2         -5.0789    0.4345   -3.2794 H         1 MOL         0.0328
     10 H3         -6.1151    1.4776   -2.2904 H         1 MOL         0.0328
     11 H4         -5.6193   -1.4960   -1.7727 H         1 MOL         0.0383
     12 H5         -6.6460   -0.4437   -0.7960 H         1 MOL         0.0383
     13 H6         -3.6391   -0.0572   -1.2396 H         1 MOL         0.0395
     14 H7         -4.6619    0.9906   -0.2538 H         1 MOL         0.0395
     15 H8         -5.2216   -0.9269    1.2398 H         1 MOL         0.0415
     16 H9         -4.2260   -2.0023    0.2640 H         1 MOL         0.0415
     17 H10        -3.2650    0.4411    1.8384 H         1 MOL         0.0456
     18 H11        -2.2175   -0.5494    0.8326 H         1 MOL         0.0456
     19 H12        -3.7218   -1.5323    3.3724 H         1 MOL         0.1174
     20 H13        -1.7156   -2.8526    3.7180 H         1 MOL         0.1105
     21 H14        -0.9922   -2.1734    2.1456 H         1 MOL         0.1105
@<TRIPOS>BOND
     1    1    2 1
     2    2    3 1
     3    3    4 1
     4    4    5 1
     5    5    6 1
     6    6    7 2
     7    1    8 1
     8    1    9 1
     9    1   10 1
    10    2   11 1
    11    2   12 1
    12    3   13 1
    13    3   14 1
    14    4   15 1
    15    4   16 1
    16    5   17 1
    17    5   18 1
    18    6   19 1
    19    7   20 1
    20    7   21 1
