@<TRIPOS>MOLECULE
3-ethylphenol
   19    19     0     0     0
SMALL
USER_CHARGES

@<TRIPOS>ATOM
      1 C1          1.2665   -2.2410   -2.2077 C.3       1 MOL        -0.0897
      2 C2          1.9309   -1.0139   -1.6027 C.3       1 MOL        -0.0414
      3 C3          1.8851   -1.0363   -0.1124 C.ar      1 MOL        -0.0430
      4 C4          2.9210   -1.6309    0.6081 C.ar      1 MOL        -0.1630
      5 C5          2.8783   -1.6520    2.0022 C.ar      1 MOL        -0.0898
      6 C6          1.7997   -1.0786    2.6757 C.ar      1 MOL        -0.2186
      7 C7          0.7638   -0.4841    1.9551 C.ar      1 MOL         0.1248
      8 C8          0.8066   -0.4630    0.5610 C.ar      1 MOL        -0.1556
      9 O1         -0.2885    0.0757    2.6119 O.3       1 MOL        -0.4984
     10 H1          1.3053   -2.2151   -3.3020 H         1 MOL         0.0373
     11 H2          0.2152   -2.2890   -1.9068 H         1 MOL         0.0373
     12 H3          1.7567   -3.1625   -1.8759 H         1 MOL         0.0373
     13 H4          1.4397   -0.1060   -1.9736 H         1 MOL         0.0484
     14 H5          2.9730   -0.9531   -1.9393 H         1 MOL         0.0484
     15 H6          3.7654   -2.0801    0.0918 H         1 MOL         0.1338
     16 H7          3.6850   -2.1145    2.5631 H         1 MOL         0.1317
     17 H8          1.7717   -1.0978    3.7618 H         1 MOL         0.1324
     18 H9         -0.0022    0.0009    0.0015 H         1 MOL         0.1500
     19 H10        -0.1745   -0.0176    3.5712 H         1 MOL         0.4180
@<TRIPOS>BOND
     1    1    2 1
     2    2    3 1
     3    3    8 ar
     4    3    4 ar
     5    4    5 ar
     6    5    6 ar
     7    6    7 ar
     8    7    8 ar
     9    7    9 1
    10    1   10 1
    11    1   11 1
    12    1   12 1
    13    2   13 1
    14    2   14 1
    15    4   15 1
    16    5   16 1
    17    6   17 1
    18    8   18 1
    19    9   19 1
