@<TRIPOS>MOLECULE
triethyl phosphate
   26    25     0     0     0
SMALL
USER_CHARGES

@<TRIPOS>ATOM
      1 C1         -0.3558    0.1904    0.1426 C.3       1 MOL        -0.1273
      2 C2          1.0022   -0.2850   -0.3279 C.3       1 MOL         0.1712
      3 O1          1.0804   -0.1386   -1.7355 O.3       1 MOL        -0.5761
      4 P1          2.4477   -0.5829   -2.4828 P.3       1 MOL         1.6117
      5 O2          2.8147   -2.0294   -2.3083 O.2       1 MOL        -0.8016
      6 O3          2.1854   -0.1335   -4.0172 O.3       1 MOL        -0.5761
      7 C3          3.2018   -0.3765   -4.9748 C.3       1 MOL         0.1712
      8 C4          2.7378    0.1229   -6.3273 C.3       1 MOL        -0.1273
      9 O4          3.5625    0.4610   -1.9406 O.3       1 MOL        -0.5761
     10 C5          3.4017    1.8520   -2.1603 C.3       1 MOL         0.1712
     11 C6          4.5783    2.5885   -1.5545 C.3       1 MOL        -0.1273
     12 H1         -0.4497    0.0909    1.2276 H         1 MOL         0.0502
     13 H2         -0.5139    1.2387   -0.1312 H         1 MOL         0.0502
     14 H3         -1.1538   -0.3873   -0.3355 H         1 MOL         0.0502
     15 H4          1.1487   -1.3393   -0.0746 H         1 MOL         0.0559
     16 H5          1.7977    0.3082    0.1329 H         1 MOL         0.0559
     17 H6          4.1126    0.1467   -4.6660 H         1 MOL         0.0559
     18 H7          3.4037   -1.4519   -5.0128 H         1 MOL         0.0559
     19 H8          3.5008   -0.0497   -7.0914 H         1 MOL         0.0502
     20 H9          1.8147   -0.3830   -6.6288 H         1 MOL         0.0502
     21 H10         2.5148    1.1942   -6.2864 H         1 MOL         0.0502
     22 H11         3.3486    2.0370   -3.2380 H         1 MOL         0.0559
     23 H12         2.4657    2.1786   -1.6958 H         1 MOL         0.0559
     24 H13         4.4855    3.6674   -1.7067 H         1 MOL         0.0502
     25 H14         4.6470    2.3875   -0.4804 H         1 MOL         0.0502
     26 H15         5.5178    2.2481   -2.0027 H         1 MOL         0.0502
@<TRIPOS>BOND
     1    1    2 1
     2    2    3 1
     3    3    4 1
     4    4    5 2
     5    4    6 1
     6    6    7 1
     7    7    8 1
     8    4    9 1
     9    9   10 1
    10   10   11 1
    11    1   12 1
    12    1   13 1
    13    1   14 1
    14    2   15 1
    15    2   16 1
    16    7   17 1
    17    7   18 1
    18    8   19 1
    19    8   20 1
    20    8   21 1
    21   10   22 1
    22   10   23 1
    23   11   24 1
    24   11   25 1
    25   11   26 1
