@<TRIPOS>MOLECULE
1,3-bis(trifluoromethyl)benzene
   18    18     0     0     0
SMALL
USER_CHARGES

@<TRIPOS>ATOM
      1 C1          1.8851   -1.0363   -0.1124 C.ar      1 MOL        -0.1380
      2 C2          2.9210   -1.6309    0.6081 C.ar      1 MOL        -0.0533
      3 C3          2.8783   -1.6520    2.0022 C.ar      1 MOL        -0.1742
      4 C4          1.7997   -1.0786    2.6757 C.ar      1 MOL        -0.0353
      5 C5          0.7638   -0.4841    1.9551 C.ar      1 MOL        -0.1742
      6 C6          0.8066   -0.4630    0.5610 C.ar      1 MOL        -0.0533
      7 C7         -0.3905    0.1278    2.6743 C.3       1 MOL         0.6896
      8 F1         -0.3008    0.0332    4.0341 F         1 MOL        -0.2322
      9 F2         -0.5490    1.4604    2.4200 F         1 MOL        -0.2322
     10 F3         -1.5815   -0.4519    2.3450 F         1 MOL        -0.2322
     11 C8          3.9863   -2.2872    2.7726 C.3       1 MOL         0.6896
     12 F4          4.9738   -2.8060    1.9843 F         1 MOL        -0.2322
     13 F5          4.6234   -1.4285    3.6225 F         1 MOL        -0.2322
     14 F6          3.5577   -3.3227    3.5516 F         1 MOL        -0.2322
     15 H1          1.9183   -1.0199   -1.1980 H         1 MOL         0.1534
     16 H2          3.7578   -2.0744    0.0751 H         1 MOL         0.1593
     17 H3          1.7665   -1.0963    3.7625 H         1 MOL         0.1705
     18 H4          0.0037   -0.0025   -0.0089 H         1 MOL         0.1593
@<TRIPOS>BOND
     1    1    6 ar
     2    1    2 ar
     3    2    3 ar
     4    3    4 ar
     5    4    5 ar
     6    5    6 ar
     7    5    7 1
     8    7    8 1
     9    7    9 1
    10    7   10 1
    11    3   11 1
    12   11   12 1
    13   11   13 1
    14   11   14 1
    15    1   15 1
    16    2   16 1
    17    4   17 1
    18    6   18 1
