@<TRIPOS>MOLECULE
3,4-dimethylpyridine
   17    17     0     0     0
SMALL
USER_CHARGES

@<TRIPOS>ATOM
      1 C1          2.3327    0.9026    1.0254 C.3       1 MOL        -0.0621
      2 C2          1.3879   -0.0684    1.6522 C.ar      1 MOL        -0.0383
      3 C3          0.2265   -0.4197    0.9733 C.ar      1 MOL        -0.2453
      4 C4         -0.6317   -1.3224    1.5803 C.ar      1 MOL         0.3905
      5 N1         -0.4092   -1.8816    2.7908 N.ar      1 MOL        -0.6664
      6 C5          0.7299   -1.5161    3.4206 C.ar      1 MOL         0.3942
      7 C6          1.6520   -0.6227    2.8997 C.ar      1 MOL        -0.1923
      8 C7          2.8800   -0.2801    3.6700 C.3       1 MOL        -0.0492
      9 H1          3.0693    0.3690    0.4172 H         1 MOL         0.0493
     10 H2          1.7966    1.6143    0.3888 H         1 MOL         0.0493
     11 H3          2.8590    1.4845    1.7895 H         1 MOL         0.0493
     12 H4         -0.0080   -0.0054   -0.0013 H         1 MOL         0.1418
     13 H5         -1.5510   -1.6289    1.0924 H         1 MOL         0.0208
     14 H6          0.8804   -1.9813    4.3900 H         1 MOL         0.0198
     15 H7          3.6958   -0.9697    3.4183 H         1 MOL         0.0463
     16 H8          3.2139    0.7443    3.4562 H         1 MOL         0.0463
     17 H9          2.7017   -0.3347    4.7526 H         1 MOL         0.0463
@<TRIPOS>BOND
     1    1    2 1
     2    2    7 ar
     3    2    3 ar
     4    3    4 ar
     5    4    5 ar
     6    5    6 ar
     7    6    7 ar
     8    7    8 1
     9    1    9 1
    10    1   10 1
    11    1   11 1
    12    3   12 1
    13    4   13 1
    14    6   14 1
    15    8   15 1
    16    8   16 1
    17    8   17 1
