@<TRIPOS>MOLECULE
1-propylsulfanylpropane
   21    20     0     0     0
SMALL
USER_CHARGES

@<TRIPOS>ATOM
      1 C1         -0.3678   -0.3232    3.3285 C.3       1 MOL        -0.0933
      2 C2          1.1200   -0.3490    3.6472 C.3       1 MOL        -0.0698
      3 C3          1.8811   -1.2098    2.6451 C.3       1 MOL        -0.0091
      4 S1          3.6528   -1.2294    3.0399 S.3       1 MOL        -0.3110
      5 C4          4.2094   -2.3030    1.6966 C.3       1 MOL        -0.0091
      6 C5          5.7204   -2.5160    1.7636 C.3       1 MOL        -0.0698
      7 C6          6.2037   -3.4186    0.6378 C.3       1 MOL        -0.0932
      8 H1         -0.9127    0.2952    4.0489 H         1 MOL         0.0352
      9 H2         -0.5342    0.0924    2.3297 H         1 MOL         0.0352
     10 H3         -0.7914   -1.3324    3.3515 H         1 MOL         0.0352
     11 H4          1.2551   -0.7366    4.6642 H         1 MOL         0.0545
     12 H5          1.5004    0.6795    3.6340 H         1 MOL         0.0545
     13 H6          1.5110   -2.2400    2.6610 H         1 MOL         0.0565
     14 H7          1.7568   -0.8214    1.6292 H         1 MOL         0.0565
     15 H8          3.9310   -1.8458    0.7389 H         1 MOL         0.0565
     16 H9          3.6854   -3.2642    1.7710 H         1 MOL         0.0565
     17 H10         6.2428   -1.5543    1.6923 H         1 MOL         0.0545
     18 H11         5.9975   -2.9704    2.7225 H         1 MOL         0.0545
     19 H12         7.2869   -3.5671    0.6916 H         1 MOL         0.0352
     20 H13         5.7226   -4.3995    0.7056 H         1 MOL         0.0352
     21 H14         5.9633   -2.9891   -0.3400 H         1 MOL         0.0352
@<TRIPOS>BOND
     1    1    2 1
     2    2    3 1
     3    3    4 1
     4    4    5 1
     5    5    6 1
     6    6    7 1
     7    1    8 1
     8    1    9 1
     9    1   10 1
    10    2   11 1
    11    2   12 1
    12    3   13 1
    13    3   14 1
    14    5   15 1
    15    5   16 1
    16    6   17 1
    17    6   18 1
    18    7   19 1
    19    7   20 1
    20    7   21 1
