@<TRIPOS>MOLECULE
propyl acetate
   17    16     0     0     0
SMALL
USER_CHARGES

@<TRIPOS>ATOM
      1 C1         -0.0023   -0.6657    0.8688 C.3       1 MOL        -0.0954
      2 C2          1.2444   -0.4434    1.7060 C.3       1 MOL        -0.1038
      3 C3          1.2749   -1.3494    2.9273 C.3       1 MOL         0.1354
      4 O1          2.4629   -1.0899    3.6622 O.3       1 MOL        -0.4431
      5 C4          2.6357   -1.8329    4.7977 C.2       1 MOL         0.6348
      6 O2          1.8678   -2.6847    5.2241 O.2       1 MOL        -0.5447
      7 C5          3.9233   -1.4542    5.4646 C.3       1 MOL        -0.1515
      8 H1         -0.0099   -0.0072   -0.0057 H         1 MOL         0.0394
      9 H2         -0.0425   -1.7005    0.5148 H         1 MOL         0.0394
     10 H3         -0.9071   -0.4713    1.4534 H         1 MOL         0.0394
     11 H4          1.2973    0.6048    2.0240 H         1 MOL         0.0485
     12 H5          2.1387   -0.6182    1.0958 H         1 MOL         0.0485
     13 H6          0.4147   -1.1588    3.5770 H         1 MOL         0.0640
     14 H7          1.2712   -2.4035    2.6320 H         1 MOL         0.0640
     15 H8          3.7484   -0.6423    6.1747 H         1 MOL         0.0750
     16 H9          4.6575   -1.1565    4.7117 H         1 MOL         0.0750
     17 H10         4.3159   -2.3167    6.0110 H         1 MOL         0.0750
@<TRIPOS>BOND
     1    1    2 1
     2    2    3 1
     3    3    4 1
     4    4    5 1
     5    5    6 2
     6    5    7 1
     7    1    8 1
     8    1    9 1
     9    1   10 1
    10    2   11 1
    11    2   12 1
    12    3   13 1
    13    3   14 1
    14    7   15 1
    15    7   16 1
    16    7   17 1
