@<TRIPOS>MOLECULE
1-methylnaphthalene
   21    22     0     0     0
SMALL
USER_CHARGES

@<TRIPOS>ATOM
      1 C1         -1.0094   -4.3873    1.0445 C.3       1 MOL        -0.0566
      2 C2         -0.0479   -3.3542    0.5448 C.ar      1 MOL        -0.0629
      3 C3         -0.4966   -2.0341    0.4940 C.ar      1 MOL        -0.1340
      4 C4          0.3500   -1.0275    0.0392 C.ar      1 MOL        -0.1230
      5 C5          1.6484   -1.3369   -0.3665 C.ar      1 MOL        -0.1228
      6 C6          2.1168   -2.6602   -0.3222 C.ar      1 MOL        -0.0336
      7 C7          1.2560   -3.6839    0.1403 C.ar      1 MOL        -0.0296
      8 C8          1.7243   -5.0072    0.1848 C.ar      1 MOL        -0.1181
      9 C9          3.0228   -5.3167   -0.2210 C.ar      1 MOL        -0.1284
     10 C10         3.8693   -4.3100   -0.6758 C.ar      1 MOL        -0.1283
     11 C11         3.4207   -2.9899   -0.7267 C.ar      1 MOL        -0.1186
     12 H1         -0.9138   -4.4942    2.1294 H         1 MOL         0.0450
     13 H2         -2.0412   -4.1091    0.8057 H         1 MOL         0.0450
     14 H3         -0.8190   -5.3582    0.5749 H         1 MOL         0.0450
     15 H4         -1.5058   -1.7800    0.8075 H         1 MOL         0.1306
     16 H5          0.0006   -0.0000   -0.0016 H         1 MOL         0.1324
     17 H6          2.2930   -0.5342   -0.7188 H         1 MOL         0.1312
     18 H7          1.0938   -5.8214    0.5342 H         1 MOL         0.1327
     19 H8          3.3733   -6.3440   -0.1817 H         1 MOL         0.1315
     20 H9          4.8798   -4.5519   -0.9922 H         1 MOL         0.1311
     21 H10         4.0999   -2.2195   -1.0857 H         1 MOL         0.1315
@<TRIPOS>BOND
     1    1    2 1
     2    2    7 ar
     3    2    3 ar
     4    3    4 ar
     5    4    5 ar
     6    5    6 ar
     7    6   11 ar
     8    6    7 ar
     9    7    8 ar
    10    8    9 ar
    11    9   10 ar
    12   10   11 ar
    13    1   12 1
    14    1   13 1
    15    1   14 1
    16    3   15 1
    17    4   16 1
    18    5   17 1
    19    8   18 1
    20    9   19 1
    21   10   20 1
    22   11   21 1
