@<TRIPOS>MOLECULE
pentan-1-ol
   18    17     0     0     0
SMALL
USER_CHARGES

@<TRIPOS>ATOM
      1 C1          0.7912   -0.3884    0.6505 C.3       1 MOL        -0.0922
      2 C2          1.6185   -1.4417   -0.0691 C.3       1 MOL        -0.0791
      3 C3          2.2938   -0.8687   -1.3148 C.3       1 MOL        -0.0776
      4 C4          3.1237   -1.9294   -2.0346 C.3       1 MOL        -0.0844
      5 C5          3.7999   -1.3667   -3.2767 C.3       1 MOL         0.1323
      6 O1          4.5528   -2.3995   -3.8975 O.3       1 MOL        -0.6020
      7 H1          0.3114   -0.8073    1.5408 H         1 MOL         0.0332
      8 H2          1.4149    0.4558    0.9609 H         1 MOL         0.0332
      9 H3          0.0065   -0.0064   -0.0100 H         1 MOL         0.0332
     10 H4          0.9694   -2.2796   -0.3490 H         1 MOL         0.0401
     11 H5          2.3771   -1.8341    0.6182 H         1 MOL         0.0401
     12 H6          1.5317   -0.4729   -1.9971 H         1 MOL         0.0384
     13 H7          2.9390   -0.0288   -1.0292 H         1 MOL         0.0384
     14 H8          2.4900   -2.7784   -2.3197 H         1 MOL         0.0546
     15 H9          3.8860   -2.3380   -1.3597 H         1 MOL         0.0546
     16 H10         4.4795   -0.5492   -3.0155 H         1 MOL         0.0193
     17 H11         3.0579   -0.9985   -3.9924 H         1 MOL         0.0193
     18 H12         4.9696   -2.0094   -4.6830 H         1 MOL         0.3985
@<TRIPOS>BOND
     1    1    2 1
     2    2    3 1
     3    3    4 1
     4    4    5 1
     5    5    6 1
     6    1    7 1
     7    1    8 1
     8    1    9 1
     9    2   10 1
    10    2   11 1
    11    3   12 1
    12    3   13 1
    13    4   14 1
    14    4   15 1
    15    5   16 1
    16    5   17 1
    17    6   18 1
