@<TRIPOS>MOLECULE
methanethiol
    6     5     0     0     0
SMALL
USER_CHARGES

@<TRIPOS>ATOM
      1 C1          0.2788    0.8226    0.6632 C.3       1 MOL        -0.0240
      2 S1         -0.4279    2.3668    0.0544 S.3       1 MOL        -0.3627
      3 H1         -0.0942    0.6141    1.6690 H         1 MOL         0.0635
      4 H2          1.3683    0.9008    0.6963 H         1 MOL         0.0635
      5 H3         -0.0007   -0.0001    0.0007 H         1 MOL         0.0635
      6 H4          0.1845    2.3556   -1.1387 H         1 MOL         0.1962
@<TRIPOS>BOND
     1    1    2 1
     2    1    3 1
     3    1    4 1
     4    1    5 1
     5    2    6 1
