@<TRIPOS>MOLECULE
decane
   32    31     0     0     0
SMALL
USER_CHARGES

@<TRIPOS>ATOM
      1 C1          0.4673   -0.7513    0.2714 C.3       1 MOL        -0.0920
      2 C2         -0.2983   -2.0318    0.5645 C.3       1 MOL        -0.0791
      3 C3         -1.2682   -2.3756   -0.5658 C.3       1 MOL        -0.0783
      4 C4         -2.0367   -3.6649   -0.2669 C.3       1 MOL        -0.0779
      5 C5         -3.0068   -4.0067   -1.4000 C.3       1 MOL        -0.0777
      6 C6         -3.8035   -5.2915   -1.1510 C.3       1 MOL        -0.0777
      7 C7         -4.7733   -5.6313   -2.2858 C.3       1 MOL        -0.0779
      8 C8         -5.5699   -6.9161   -2.0367 C.3       1 MOL        -0.0783
      9 C9         -6.5394   -7.2578   -3.1690 C.3       1 MOL        -0.0791
     10 C10        -7.3052   -8.5389   -2.8754 C.3       1 MOL        -0.0919
     11 H1          1.1548   -0.5243    1.0922 H         1 MOL         0.0327
     12 H2         -0.2157    0.0965    0.1559 H         1 MOL         0.0327
     13 H3          1.0549   -0.8471   -0.6472 H         1 MOL         0.0327
     14 H4         -0.8488   -1.9142    1.5052 H         1 MOL         0.0380
     15 H5          0.4146   -2.8525    0.7060 H         1 MOL         0.0380
     16 H6         -0.7123   -2.4879   -1.5046 H         1 MOL         0.0384
     17 H7         -1.9765   -1.5500   -0.7063 H         1 MOL         0.0384
     18 H8         -2.5853   -3.5446    0.6739 H         1 MOL         0.0384
     19 H9         -1.3281   -4.4903   -0.1279 H         1 MOL         0.0384
     20 H10        -2.4405   -4.1315   -2.3314 H         1 MOL         0.0385
     21 H11        -3.6981   -3.1704   -1.5611 H         1 MOL         0.0385
     22 H12        -4.3473   -5.1974   -0.2042 H         1 MOL         0.0385
     23 H13        -3.0912   -6.1166   -1.0284 H         1 MOL         0.0385
     24 H14        -5.4724   -4.8028   -2.4468 H         1 MOL         0.0384
     25 H15        -4.2070   -5.7556   -3.2170 H         1 MOL         0.0384
     26 H16        -4.8573   -7.7413   -1.9137 H         1 MOL         0.0384
     27 H17        -6.1192   -6.8311   -1.0911 H         1 MOL         0.0384
     28 H18        -7.2594   -6.4449   -3.3123 H         1 MOL         0.0380
     29 H19        -5.9883   -7.3762   -4.1090 H         1 MOL         0.0380
     30 H20        -7.9928   -8.7659   -3.6963 H         1 MOL         0.0327
     31 H21        -6.6224   -9.3868   -2.7606 H         1 MOL         0.0327
     32 H22        -7.8925   -8.4431   -1.9566 H         1 MOL         0.0327
@<TRIPOS>BOND
     1    1    2 1
     2    2    3 1
     3    3    4 1
     4    4    5 1
     5    5    6 1
     6    6    7 1
     7    7    8 1
     8    8    9 1
     9    9   10 1
    10    1   11 1
    11    1   12 1
    12    1   13 1
    13    2   14 1
    14    2   15 1
    15    3   16 1
    16    3   17 1
    17    4   18 1
    18    4   19 1
    19    5   20 1
    20    5   21 1
    21    6   22 1
    22    6   23 1
    23    7   24 1
    24    7   25 1
    25    8   26 1
    26    8   27 1
    27    9   28 1
    28    9   29 1
    29   10   30 1
    30   10   31 1
    31   10   32 1
