@<TRIPOS>MOLECULE
(1R)-2,2,2-trichloro-1-dimethoxyphosphoryl-ethanol
   20    19     0     0     0
SMALL
USER_CHARGES

@<TRIPOS>ATOM
      1 C1          1.1649   -0.4851    1.9520 C.3       1 MOL         0.1566
      2 O1          1.3842   -0.5003    0.5522 O.3       1 MOL        -0.5828
      3 P1          0.4016    0.2898   -0.4640 P.3       1 MOL         1.5171
      4 O2          1.0184    0.5667   -1.8054 O.2       1 MOL        -0.7926
      5 C2         -1.1258   -0.6526   -0.5268 C.3       1 MOL        -0.1334
      6 H1         -1.5425   -0.6952    0.4850 H         1 MOL         0.1397
      7 C3         -1.0955   -2.0605   -1.1396 C.3       1 MOL         0.2508
      8 Cl1         0.0255   -3.1288   -0.2453 Cl        1 MOL        -0.0962
      9 Cl2        -2.7365   -2.7914   -1.0533 Cl        1 MOL        -0.0962
     10 Cl3        -0.5973   -2.0293   -2.8597 Cl        1 MOL        -0.0962
     11 O3         -2.0063    0.1839   -1.2815 O.3       1 MOL        -0.5613
     12 O4         -0.0108    1.6283    0.3545 O.3       1 MOL        -0.5828
     13 C4          0.9038    2.7106    0.3870 C.3       1 MOL         0.1566
     14 H2          1.9376   -1.0766    2.4491 H         1 MOL         0.0482
     15 H3          0.1771   -0.8983    2.1714 H         1 MOL         0.0482
     16 H4          1.2134    0.5466    2.3082 H         1 MOL         0.0482
     17 H5         -1.6021    0.3165   -2.1560 H         1 MOL         0.4314
     18 H6          0.4791    3.5279    0.9740 H         1 MOL         0.0482
     19 H7          1.1071    3.0457   -0.6327 H         1 MOL         0.0482
     20 H8          1.8334    2.3746    0.8514 H         1 MOL         0.0482
@<TRIPOS>BOND
     1    1    2 1
     2    2    3 1
     3    3    4 2
     4    3    5 1
     5    5    6 1
     6    5    7 1
     7    7    8 1
     8    7    9 1
     9    7   10 1
    10    5   11 1
    11    3   12 1
    12   12   13 1
    13    1   14 1
    14    1   15 1
    15    1   16 1
    16   11   17 1
    17   13   18 1
    18   13   19 1
    19   13   20 1
