@<TRIPOS>MOLECULE
acetamide
    9     8     0     0     0
SMALL
USER_CHARGES

@<TRIPOS>ATOM
      1 C1          0.0085   -1.0706   -0.2216 C.3       1 MOL        -0.1728
      2 C2         -1.1143   -1.7345    0.5269 C.2       1 MOL         0.6572
      3 O1         -2.2913   -1.5797    0.2102 O.2       1 MOL        -0.6138
      4 N1         -0.6961   -2.4994    1.5900 N.am      1 MOL        -0.6832
      5 H1          0.2134   -0.0964    0.2308 H         1 MOL         0.0646
      6 H2          0.9008   -1.6989   -0.1556 H         1 MOL         0.0646
      7 H3         -0.2396   -0.9173   -1.2754 H         1 MOL         0.0646
      8 H4         -1.3658   -2.9943    2.1698 H         1 MOL         0.3094
      9 H5          0.2822   -2.6001    1.8406 H         1 MOL         0.3094
@<TRIPOS>BOND
     1    1    2 1
     2    2    3 2
     3    2    4 am
     4    1    5 1
     5    1    6 1
     6    1    7 1
     7    4    8 1
     8    4    9 1
