@<TRIPOS>MOLECULE
1,1,2,2-tetrachloroethylene
    6     5     0     0     0
SMALL
USER_CHARGES

@<TRIPOS>ATOM
      1 C1          0.2020    0.6401   -0.0293 C.2       1 MOL         0.0629
      2 C2         -0.2019   -0.6401    0.0292 C.2       1 MOL         0.0629
      3 Cl1         0.9124   -1.9725    0.0232 Cl        1 MOL        -0.0315
      4 Cl2        -1.8781   -1.0879    0.1163 Cl        1 MOL        -0.0315
      5 Cl3        -0.9124    1.9725   -0.0233 Cl        1 MOL        -0.0315
      6 Cl4         1.8780    1.0880   -0.1160 Cl        1 MOL        -0.0315
@<TRIPOS>BOND
     1    1    2 2
     2    2    3 1
     3    2    4 1
     4    1    5 1
     5    1    6 1
