@<TRIPOS>MOLECULE
tetrahydrofuran
   13    13     0     0     0
SMALL
USER_CHARGES

@<TRIPOS>ATOM
      1 C1         -0.5364   -1.0227   -0.5053 C.3       1 MOL        -0.1117
      2 C2         -0.5413    0.3724   -1.0757 C.3       1 MOL        -0.1117
      3 C3          0.6038    1.0191   -0.3271 C.3       1 MOL         0.1240
      4 O1          0.6574    0.3967    0.9644 O.3       1 MOL        -0.4295
      5 C4         -0.1835   -0.7655    0.9437 C.3       1 MOL         0.1240
      6 H1          0.2527   -1.6156   -0.9829 H         1 MOL         0.0547
      7 H2         -1.4848   -1.5521   -0.6270 H         1 MOL         0.0547
      8 H3         -0.4155    0.4056   -2.1609 H         1 MOL         0.0547
      9 H4         -1.4836    0.8729   -0.8229 H         1 MOL         0.0547
     10 H5          1.5599    0.8326   -0.8277 H         1 MOL         0.0465
     11 H6          0.4748    2.0988   -0.2114 H         1 MOL         0.0465
     12 H7          0.3389   -1.6079    1.4054 H         1 MOL         0.0465
     13 H8         -1.0772   -0.5410    1.5357 H         1 MOL         0.0465
@<TRIPOS>BOND
     1    1    5 1
     2    1    2 1
     3    2    3 1
     4    3    4 1
     5    4    5 1
     6    1    6 1
     7    1    7 1
     8    2    8 1
     9    2    9 1
    10    3   10 1
    11    3   11 1
    12    5   12 1
    13    5   13 1
