@<TRIPOS>MOLECULE
2-[(1S)-2-chloro-1-diethoxyphosphinothioylsulfanyl-ethyl]isoindoline-1,3-dione
   40    41     0     0     0
SMALL
USER_CHARGES

@<TRIPOS>ATOM
      1 C1          2.0290    4.1208    3.8402 C.3       1 MOL        -0.0958
      2 C2          0.7288    3.7574    3.1551 C.3       1 MOL         0.1336
      3 O1          1.0167    3.0143    1.9821 O.3       1 MOL        -0.4972
      4 P1         -0.1954    2.4774    1.0248 P.3       1 MOL         0.9151
      5 S1         -1.2910    3.9444    0.3187 S.2       1 MOL        -0.4813
      6 O2         -0.9929    1.5916    2.1440 O.3       1 MOL        -0.4972
      7 C3         -2.1748    0.8905    1.7938 C.3       1 MOL         0.1336
      8 C4         -2.6976    0.1616    3.0139 C.3       1 MOL        -0.0958
      9 S2          0.6689    1.1032   -0.3525 S.3       1 MOL        -0.5531
     10 C5          1.3978   -0.2304    0.6528 C.3       1 MOL         0.4079
     11 H1          0.7211   -0.4592    1.4824 H         1 MOL         0.1192
     12 C6          1.6529   -1.4867   -0.1772 C.3       1 MOL         0.0032
     13 Cl1         2.3661   -2.7998    0.7940 Cl        1 MOL        -0.1771
     14 N1          2.6280    0.2372    1.2389 N.am      1 MOL        -0.5049
     15 C7          3.7177    0.6732    0.5063 C.2       1 MOL         0.7350
     16 O3          3.8689    0.7575   -0.6983 O.2       1 MOL        -0.5445
     17 C8          4.7379    1.0454    1.4864 C.ar      1 MOL        -0.1337
     18 C9          6.0120    1.5394    1.2958 C.ar      1 MOL        -0.0589
     19 C10         6.7684    1.8085    2.4401 C.ar      1 MOL        -0.1146
     20 C11         6.2414    1.5810    3.7278 C.ar      1 MOL        -0.1146
     21 C12         4.9473    1.0802    3.8965 C.ar      1 MOL        -0.0589
     22 C13         4.2192    0.8219    2.7534 C.ar      1 MOL        -0.1337
     23 C14         2.8603    0.3037    2.6017 C.2       1 MOL         0.7350
     24 O4          2.1331    0.0096    3.5321 O.2       1 MOL        -0.5445
     25 H2          1.8425    4.6961    4.7512 H         1 MOL         0.0557
     26 H3          2.5932    3.2192    4.1006 H         1 MOL         0.0557
     27 H4          2.6645    4.7122    3.1728 H         1 MOL         0.0557
     28 H5          0.1778    4.6598    2.8743 H         1 MOL         0.0644
     29 H6          0.1048    3.1471    3.8147 H         1 MOL         0.0644
     30 H7         -2.9170    1.6077    1.4292 H         1 MOL         0.0644
     31 H8         -1.9414    0.1803    0.9942 H         1 MOL         0.0644
     32 H9         -3.6112   -0.3909    2.7779 H         1 MOL         0.0557
     33 H10        -1.9481   -0.5403    3.3942 H         1 MOL         0.0557
     34 H11        -2.9111    0.8683    3.8227 H         1 MOL         0.0557
     35 H12         0.7107   -1.8742   -0.5799 H         1 MOL         0.1074
     36 H13         2.3136   -1.2920   -1.0296 H         1 MOL         0.1074
     37 H14         6.4174    1.7145    0.3064 H         1 MOL         0.1622
     38 H15         7.7777    2.1991    2.3381 H         1 MOL         0.1462
     39 H16         6.8521    1.7991    4.6002 H         1 MOL         0.1462
     40 H17         4.5424    0.9060    4.8865 H         1 MOL         0.1622
@<TRIPOS>BOND
     1    1    2 1
     2    2    3 1
     3    3    4 1
     4    4    5 2
     5    4    6 1
     6    6    7 1
     7    7    8 1
     8    4    9 1
     9    9   10 1
    10   10   11 1
    11   10   12 1
    12   12   13 1
    13   10   14 1
    14   14   23 am
    15   14   15 am
    16   15   16 2
    17   15   17 1
    18   17   22 ar
    19   17   18 ar
    20   18   19 ar
    21   19   20 ar
    22   20   21 ar
    23   21   22 ar
    24   22   23 1
    25   23   24 2
    26    1   25 1
    27    1   26 1
    28    1   27 1
    29    2   28 1
    30    2   29 1
    31    7   30 1
    32    7   31 1
    33    8   32 1
    34    8   33 1
    35    8   34 1
    36   12   35 1
    37   12   36 1
    38   18   37 1
    39   19   38 1
    40   20   39 1
    41   21   40 1
