@<TRIPOS>MOLECULE
4-methylaniline
   17    17     0     0     0
SMALL
USER_CHARGES

@<TRIPOS>ATOM
      1 C1          1.9305   -1.0140   -1.6030 C.3       1 MOL        -0.0456
      2 C2          1.8851   -1.0363   -0.1124 C.ar      1 MOL        -0.1219
      3 C3          2.9210   -1.6309    0.6081 C.ar      1 MOL        -0.0920
      4 C4          2.8783   -1.6520    2.0022 C.ar      1 MOL        -0.1888
      5 C5          1.7997   -1.0786    2.6757 C.ar      1 MOL         0.1363
      6 C6          0.7638   -0.4841    1.9551 C.ar      1 MOL        -0.1888
      7 C7          0.8066   -0.4630    0.5610 C.ar      1 MOL        -0.0920
      8 N1          1.7568   -1.0994    4.0853 N.pl3     1 MOL        -0.8217
      9 H1          2.4382   -0.1083   -1.9486 H         1 MOL         0.0398
     10 H2          2.4632   -1.8884   -1.9910 H         1 MOL         0.0398
     11 H3          0.9202   -1.0367   -2.0251 H         1 MOL         0.0398
     12 H4          3.7653   -2.0793    0.0916 H         1 MOL         0.1291
     13 H5          3.6906   -2.1183    2.5537 H         1 MOL         0.1297
     14 H6         -0.0811   -0.0337    2.4694 H         1 MOL         0.1297
     15 H7         -0.0048    0.0020    0.0077 H         1 MOL         0.1291
     16 H8          2.4818   -1.5694    4.5886 H         1 MOL         0.3886
     17 H9          0.9559   -0.7271    4.5543 H         1 MOL         0.3886
@<TRIPOS>BOND
     1    1    2 1
     2    2    7 ar
     3    2    3 ar
     4    3    4 ar
     5    4    5 ar
     6    5    6 ar
     7    6    7 ar
     8    5    8 1
     9    1    9 1
    10    1   10 1
    11    1   11 1
    12    3   12 1
    13    4   13 1
    14    6   14 1
    15    7   15 1
    16    8   16 1
    17    8   17 1
