@<TRIPOS>MOLECULE
(2R)-4-methylpentan-2-ol
   21    20     0     0     0
SMALL
USER_CHARGES

@<TRIPOS>ATOM
      1 C1          1.5229   -0.0314   -2.8940 C.3       1 MOL        -0.1287
      2 C2          1.1132    1.2947   -2.2678 C.3       1 MOL         0.1423
      3 H1          1.4497    1.3370   -1.2269 H         1 MOL         0.0310
      4 C3         -0.3932    1.5685   -2.3523 C.3       1 MOL        -0.0750
      5 C4         -1.3046    0.5383   -1.6612 C.3       1 MOL        -0.0642
      6 C5         -1.0223    0.4225   -0.1632 C.3       1 MOL        -0.0911
      7 C6         -2.7720    0.9158   -1.8831 C.3       1 MOL        -0.0911
      8 O1          1.7779    2.3501   -2.9654 O.3       1 MOL        -0.6054
      9 H2          1.1932   -0.0896   -3.9370 H         1 MOL         0.0423
     10 H3          2.6141   -0.1281   -2.9052 H         1 MOL         0.0423
     11 H4          1.1128   -0.8842   -2.3465 H         1 MOL         0.0423
     12 H5         -0.5859    2.5666   -1.9347 H         1 MOL         0.0542
     13 H6         -0.6765    1.6478   -3.4111 H         1 MOL         0.0542
     14 H7         -1.1481   -0.4456   -2.1188 H         1 MOL         0.0449
     15 H8         -1.6804   -0.3146    0.3090 H         1 MOL         0.0342
     16 H9         -1.1640    1.3817    0.3439 H         1 MOL         0.0342
     17 H10         0.0135    0.1129    0.0140 H         1 MOL         0.0342
     18 H11        -3.4374    0.1936   -1.3982 H         1 MOL         0.0342
     19 H12        -2.9879    1.9028   -1.4605 H         1 MOL         0.0342
     20 H13        -3.0195    0.9425   -2.9499 H         1 MOL         0.0342
     21 H14         2.7275    2.1883   -2.8632 H         1 MOL         0.3970
@<TRIPOS>BOND
     1    1    2 1
     2    2    3 1
     3    2    4 1
     4    4    5 1
     5    5    6 1
     6    5    7 1
     7    2    8 1
     8    1    9 1
     9    1   10 1
    10    1   11 1
    11    4   12 1
    12    4   13 1
    13    5   14 1
    14    6   15 1
    15    6   16 1
    16    6   17 1
    17    7   18 1
    18    7   19 1
    19    7   20 1
    20    8   21 1
