@<TRIPOS>MOLECULE
2,5-dimethylpyridine
   17    17     0     0     0
SMALL
USER_CHARGES

@<TRIPOS>ATOM
      1 C1          2.8858   -0.2682    3.6506 C.3       1 MOL        -0.0494
      2 C2          1.6520   -0.6227    2.8997 C.ar      1 MOL        -0.1989
      3 C3          1.3879   -0.0684    1.6522 C.ar      1 MOL        -0.0928
      4 C4          0.2265   -0.4197    0.9733 C.ar      1 MOL        -0.2444
      5 C5         -0.6317   -1.3224    1.5803 C.ar      1 MOL         0.4064
      6 N1         -0.4092   -1.8816    2.7908 N.ar      1 MOL        -0.6666
      7 C6          0.7299   -1.5161    3.4206 C.ar      1 MOL         0.4003
      8 C7         -1.8873   -1.7227    0.8799 C.3       1 MOL        -0.1492
      9 H1          3.6948   -0.9567    3.3880 H         1 MOL         0.0459
     10 H2          3.2028    0.7545    3.4213 H         1 MOL         0.0459
     11 H3          2.7141   -0.3193    4.7310 H         1 MOL         0.0459
     12 H4          2.0811    0.6368    1.2013 H         1 MOL         0.1367
     13 H5          0.0083    0.0062   -0.0000 H         1 MOL         0.1411
     14 H6          0.8833   -1.9811    4.3897 H         1 MOL         0.0210
     15 H7         -1.7084   -2.6026    0.2505 H         1 MOL         0.0527
     16 H8         -2.6831   -1.9624    1.5965 H         1 MOL         0.0527
     17 H9         -2.2644   -0.9106    0.2452 H         1 MOL         0.0527
@<TRIPOS>BOND
     1    1    2 1
     2    2    7 ar
     3    2    3 ar
     4    3    4 ar
     5    4    5 ar
     6    5    6 ar
     7    6    7 ar
     8    5    8 1
     9    1    9 1
    10    1   10 1
    11    1   11 1
    12    3   12 1
    13    4   13 1
    14    7   14 1
    15    8   15 1
    16    8   16 1
    17    8   17 1
