@<TRIPOS>MOLECULE
3,4-dimethylphenol
   19    19     0     0     0
SMALL
USER_CHARGES

@<TRIPOS>ATOM
      1 C1          1.9522   -1.0266   -1.6043 C.3       1 MOL        -0.0493
      2 C2          1.8851   -1.0363   -0.1124 C.ar      1 MOL        -0.1096
      3 C3          2.9210   -1.6309    0.6081 C.ar      1 MOL        -0.0902
      4 C4          2.8783   -1.6520    2.0022 C.ar      1 MOL        -0.2123
      5 C5          1.7997   -1.0786    2.6757 C.ar      1 MOL         0.1217
      6 C6          0.7638   -0.4841    1.9551 C.ar      1 MOL        -0.1580
      7 C7          0.8066   -0.4630    0.5610 C.ar      1 MOL        -0.0415
      8 C8         -0.3147    0.1776   -0.1891 C.3       1 MOL        -0.0562
      9 O1          1.7577   -1.1001    4.0359 O.3       1 MOL        -0.4996
     10 H1          2.4651   -0.1239   -1.9501 H         1 MOL         0.0420
     11 H2          2.4902   -1.9044   -1.9772 H         1 MOL         0.0420
     12 H3          0.9482   -1.0527   -2.0408 H         1 MOL         0.0420
     13 H4          3.7652   -2.0812    0.0925 H         1 MOL         0.1320
     14 H5          3.6887   -2.1159    2.5576 H         1 MOL         0.1324
     15 H6         -0.0759   -0.0386    2.4835 H         1 MOL         0.1486
     16 H7         -0.1047    1.2412   -0.3511 H         1 MOL         0.0463
     17 H8         -0.4641   -0.3018   -1.1645 H         1 MOL         0.0463
     18 H9         -1.2608    0.0875    0.3590 H         1 MOL         0.0463
     19 H10         2.5438   -1.5458    4.3897 H         1 MOL         0.4171
@<TRIPOS>BOND
     1    1    2 1
     2    2    7 ar
     3    2    3 ar
     4    3    4 ar
     5    4    5 ar
     6    5    6 ar
     7    6    7 ar
     8    7    8 1
     9    5    9 1
    10    1   10 1
    11    1   11 1
    12    1   12 1
    13    3   13 1
    14    4   14 1
    15    6   15 1
    16    8   16 1
    17    8   17 1
    18    8   18 1
    19    9   19 1
