@<TRIPOS>MOLECULE
1,2,4-trichlorobenzene
   12    12     0     0     0
SMALL
USER_CHARGES

@<TRIPOS>ATOM
      1 C1          1.8851   -1.0363   -0.1124 C.ar      1 MOL        -0.1178
      2 C2          2.9210   -1.6309    0.6081 C.ar      1 MOL        -0.1094
      3 C3          2.8783   -1.6520    2.0022 C.ar      1 MOL         0.0158
      4 C4          1.7997   -1.0786    2.6757 C.ar      1 MOL         0.0254
      5 C5          0.7638   -0.4841    1.9551 C.ar      1 MOL        -0.1142
      6 C6          0.8066   -0.4630    0.5610 C.ar      1 MOL         0.0228
      7 Cl1        -0.4718    0.2689   -0.3289 Cl        1 MOL        -0.0774
      8 Cl2         1.6887   -1.0745    4.4010 Cl        1 MOL        -0.0624
      9 Cl3         4.1903   -2.4058    2.8380 Cl        1 MOL        -0.0609
     10 H1          1.9312   -1.0278   -1.1985 H         1 MOL         0.1556
     11 H2          3.7533   -2.0741    0.0672 H         1 MOL         0.1566
     12 H3         -0.0782   -0.0344    2.4772 H         1 MOL         0.1659
@<TRIPOS>BOND
     1    1    6 ar
     2    1    2 ar
     3    2    3 ar
     4    3    4 ar
     5    4    5 ar
     6    5    6 ar
     7    6    7 1
     8    4    8 1
     9    3    9 1
    10    1   10 1
    11    2   11 1
    12    5   12 1
