@<TRIPOS>MOLECULE
(2R)-2-bromo-1,1,1,2-tetrafluoro-ethane
    8     7     0     0     0
SMALL
USER_CHARGES

@<TRIPOS>ATOM
      1 C1         -0.6040    0.4355   -0.0755 C.3       1 MOL         0.1983
      2 H1         -1.5703   -0.0730   -0.1186 H         1 MOL         0.1162
      3 C2          0.5410   -0.5398   -0.0399 C.3       1 MOL         0.6120
      4 F1          0.5556   -1.3294   -1.1352 F         1 MOL        -0.2160
      5 F2          0.4882   -1.3349    1.0494 F         1 MOL        -0.2160
      6 F3          1.7196    0.1226   -0.0056 F         1 MOL        -0.2160
      7 F4         -0.4812    1.2250   -1.1731 F         1 MOL        -0.1767
      8 Br1        -0.6094    1.5413    1.5214 Br        1 MOL        -0.1018
@<TRIPOS>BOND
     1    1    2 1
     2    1    3 1
     3    3    4 1
     4    3    5 1
     5    3    6 1
     6    1    7 1
     7    1    8 1
