@<TRIPOS>MOLECULE
acetic acid
    8     7     0     0     0
SMALL
USER_CHARGES

@<TRIPOS>ATOM
      1 C1         -1.0284    0.3448   -0.1340 C.3       1 MOL        -0.1977
      2 C2         -1.6530    0.6105    1.1990 C.2       1 MOL         0.6237
      3 O1         -2.6517    0.0533    1.6296 O.2       1 MOL        -0.4845
      4 O2         -0.9598    1.5616    1.8714 O.3       1 MOL        -0.5868
      5 H1         -1.4624    1.0088   -0.8857 H         1 MOL         0.0744
      6 H2          0.0533    0.4881   -0.0723 H         1 MOL         0.0744
      7 H3         -1.2259   -0.6905   -0.4265 H         1 MOL         0.0744
      8 H4         -0.1896    1.8857    1.3576 H         1 MOL         0.4220
@<TRIPOS>BOND
     1    1    2 1
     2    2    3 2
     3    2    4 1
     4    1    5 1
     5    1    6 1
     6    1    7 1
     7    4    8 1
