@<TRIPOS>MOLECULE
(2S,3S,4S,7S,8R)-3,5,6,7,8,9,9-heptachlorotricyclo[BLAH.BLAH.BLAH.BLAH]deca-,5-diene
   22    24     0     0     0
SMALL
USER_CHARGES

@<TRIPOS>ATOM
      1 C1          0.8376    1.2944   -1.8439 C.2       1 MOL        -0.1474
      2 C2          1.9517    0.5553   -1.8617 C.2       1 MOL        -0.1619
      3 C3          1.7399   -0.8437   -1.3754 C.3       1 MOL         0.0812
      4 H1          2.4064   -1.0930   -0.5470 H         1 MOL         0.0976
      5 C4          0.2495   -0.8874   -0.9940 C.3       1 MOL        -0.0823
      6 H2         -0.2801   -1.6561   -1.5726 H         1 MOL         0.1105
      7 C5         -0.3433    0.5284   -1.3416 C.3       1 MOL        -0.0468
      8 H3         -1.0894    0.4407   -2.1408 H         1 MOL         0.1024
      9 C6         -0.9866    0.9755    0.0146 C.3       1 MOL         0.0837
     10 C7          0.1295    1.2082    1.0161 C.2       1 MOL        -0.0235
     11 C8          0.6496    0.0126    1.3195 C.2       1 MOL        -0.0409
     12 C9         -0.1163   -1.0309    0.5268 C.3       1 MOL         0.0812
     13 C10        -1.5382   -0.3770    0.5734 C.3       1 MOL         0.1323
     14 Cl1        -2.2572   -0.2676    2.2239 Cl        1 MOL        -0.0901
     15 Cl2        -2.7702   -1.1677   -0.4621 Cl        1 MOL        -0.0901
     16 Cl3        -0.0298   -2.6776    1.1185 Cl        1 MOL        -0.0715
     17 Cl4         1.9393   -0.3267    2.3630 Cl        1 MOL        -0.0061
     18 Cl5         0.6186    2.7311    1.5704 Cl        1 MOL        -0.0034
     19 Cl6        -2.1725    2.2545   -0.1473 Cl        1 MOL        -0.0754
     20 Cl7         2.0985   -1.9816   -2.7002 Cl        1 MOL        -0.1698
     21 H4          0.7917    2.3279   -2.1562 H         1 MOL         0.1592
     22 H5          2.9118    0.9334   -2.1859 H         1 MOL         0.1612
@<TRIPOS>BOND
     1    1    7 1
     2    1    2 2
     3    2    3 1
     4    3    4 1
     5    3    5 1
     6    5    6 1
     7    5   12 1
     8    5    7 1
     9    7    8 1
    10    7    9 1
    11    9   13 1
    12    9   10 1
    13   10   11 2
    14   11   12 1
    15   12   13 1
    16   13   14 1
    17   13   15 1
    18   12   16 1
    19   11   17 1
    20   10   18 1
    21    9   19 1
    22    3   20 1
    23    1   21 1
    24    2   22 1
