@<TRIPOS>MOLECULE
ethylsulfanylethane
   15    14     0     0     0
SMALL
USER_CHARGES

@<TRIPOS>ATOM
      1 C1          0.5033   -0.3033    1.1381 C.3       1 MOL        -0.0835
      2 C2          1.8518   -0.8681    0.7340 C.3       1 MOL        -0.0077
      3 S1          2.9258    0.4446    0.0921 S.3       1 MOL        -0.3124
      4 C3          4.3832   -0.5607   -0.2730 C.3       1 MOL        -0.0077
      5 C4          5.4983    0.2958   -0.8475 C.3       1 MOL        -0.0835
      6 H1         -0.1588   -1.0836    1.5286 H         1 MOL         0.0456
      7 H2          0.6059    0.4789    1.8979 H         1 MOL         0.0456
      8 H3          0.0105    0.1433    0.2680 H         1 MOL         0.0456
      9 H4          1.7267   -1.6313   -0.0402 H         1 MOL         0.0553
     10 H5          2.3409   -1.3340    1.5948 H         1 MOL         0.0553
     11 H6          4.7216   -1.0489    0.6483 H         1 MOL         0.0553
     12 H7          4.1072   -1.3453   -0.9868 H         1 MOL         0.0553
     13 H8          6.3873   -0.3029   -1.0728 H         1 MOL         0.0456
     14 H9          5.1805    0.8060   -1.7631 H         1 MOL         0.0456
     15 H10         5.7922    1.0648   -0.1253 H         1 MOL         0.0456
@<TRIPOS>BOND
     1    1    2 1
     2    2    3 1
     3    3    4 1
     4    4    5 1
     5    1    6 1
     6    1    7 1
     7    1    8 1
     8    2    9 1
     9    2   10 1
    10    4   11 1
    11    4   12 1
    12    5   13 1
    13    5   14 1
    14    5   15 1
