@<TRIPOS>MOLECULE
methyl 4-hydroxybenzoate
   19    19     0     0     0
SMALL
USER_CHARGES

@<TRIPOS>ATOM
      1 C1          0.5839   -1.0128   -3.5063 C.3       1 MOL         0.1262
      2 O1          0.6724   -1.0309   -2.0775 O.3       1 MOL        -0.4401
      3 C2          1.9295   -1.0140   -1.5659 C.2       1 MOL         0.6506
      4 O2          2.9704   -0.9853   -2.2039 O.2       1 MOL        -0.5391
      5 C3          1.8851   -1.0363   -0.1124 C.ar      1 MOL        -0.1704
      6 C4          2.9210   -1.6309    0.6081 C.ar      1 MOL        -0.0362
      7 C5          2.8783   -1.6520    2.0022 C.ar      1 MOL        -0.2020
      8 C6          1.7997   -1.0786    2.6757 C.ar      1 MOL         0.1559
      9 C7          0.7638   -0.4841    1.9551 C.ar      1 MOL        -0.2020
     10 C8          0.8066   -0.4630    0.5610 C.ar      1 MOL        -0.0362
     11 O3          1.7572   -1.0988    4.0360 O.3       1 MOL        -0.4911
     12 H1         -0.4664   -1.0287   -3.8073 H         1 MOL         0.0499
     13 H2          1.1045   -1.8823   -3.9155 H         1 MOL         0.0499
     14 H3          1.0540   -0.1001   -3.8800 H         1 MOL         0.0499
     15 H4          3.7661   -2.0813    0.0940 H         1 MOL         0.1556
     16 H5          3.6886   -2.1157    2.5579 H         1 MOL         0.1495
     17 H6         -0.0793   -0.0363    2.4742 H         1 MOL         0.1495
     18 H7         -0.0055    0.0036    0.0092 H         1 MOL         0.1556
     19 H8          2.5434   -1.5438    4.3905 H         1 MOL         0.4243
@<TRIPOS>BOND
     1    1    2 1
     2    2    3 1
     3    3    4 2
     4    3    5 1
     5    5   10 ar
     6    5    6 ar
     7    6    7 ar
     8    7    8 ar
     9    8    9 ar
    10    9   10 ar
    11    8   11 1
    12    1   12 1
    13    1   13 1
    14    1   14 1
    15    6   15 1
    16    7   16 1
    17    9   17 1
    18   10   18 1
    19   11   19 1
