@<TRIPOS>MOLECULE
2-methylpentan-2-ol
   21    20     0     0     0
SMALL
USER_CHARGES

@<TRIPOS>ATOM
      1 C1          1.0887   -0.1580   -0.5331 C.3       1 MOL        -0.0921
      2 C2          0.8600   -1.1431   -1.6703 C.3       1 MOL        -0.0786
      3 C3          0.4071   -2.5093   -1.1412 C.3       1 MOL        -0.0631
      4 C4          0.1536   -3.5662   -2.2352 C.3       1 MOL         0.1487
      5 C5         -0.2913   -4.8812   -1.5864 C.3       1 MOL        -0.1236
      6 C6          1.3843   -3.8070   -3.1121 C.3       1 MOL        -0.1236
      7 O1         -0.9126   -3.1052   -3.0679 O.3       1 MOL        -0.5970
      8 H1          1.4118    0.8154   -0.9162 H         1 MOL         0.0317
      9 H2          1.8528   -0.5272    0.1582 H         1 MOL         0.0317
     10 H3          0.1631   -0.0105    0.0320 H         1 MOL         0.0317
     11 H4          0.1075   -0.7303   -2.3512 H         1 MOL         0.0473
     12 H5          1.7929   -1.2446   -2.2348 H         1 MOL         0.0473
     13 H6          1.1539   -2.8856   -0.4304 H         1 MOL         0.0458
     14 H7         -0.5233   -2.3577   -0.5775 H         1 MOL         0.0458
     15 H8         -0.4780   -5.6498   -2.3450 H         1 MOL         0.0420
     16 H9         -1.2347   -4.7487   -1.0443 H         1 MOL         0.0420
     17 H10         0.4614   -5.2607   -0.8877 H         1 MOL         0.0420
     18 H11         1.1861   -4.5595   -3.8824 H         1 MOL         0.0420
     19 H12         2.2148   -4.2027   -2.5156 H         1 MOL         0.0420
     20 H13         1.7197   -2.8844   -3.5965 H         1 MOL         0.0420
     21 H14        -1.0466   -3.7881   -3.7415 H         1 MOL         0.3963
@<TRIPOS>BOND
     1    1    2 1
     2    2    3 1
     3    3    4 1
     4    4    5 1
     5    4    6 1
     6    4    7 1
     7    1    8 1
     8    1    9 1
     9    1   10 1
    10    2   11 1
    11    2   12 1
    12    3   13 1
    13    3   14 1
    14    5   15 1
    15    5   16 1
    16    5   17 1
    17    6   18 1
    18    6   19 1
    19    6   20 1
    20    7   21 1
