@<TRIPOS>MOLECULE
acetone
   10     9     0     0     0
SMALL
USER_CHARGES

@<TRIPOS>ATOM
      1 C1         -0.7025   -0.4113    0.7289 C.3       1 MOL        -0.2028
      2 C2         -0.0565   -0.4470    2.0875 C.2       1 MOL         0.5636
      3 O1          0.1012   -1.5023    2.6993 O.2       1 MOL        -0.5358
      4 C3          0.3848    0.8720    2.6618 C.3       1 MOL        -0.2028
      5 H1         -1.7822   -0.2843    0.8401 H         1 MOL         0.0630
      6 H2         -0.2836    0.4123    0.1457 H         1 MOL         0.0630
      7 H3         -0.5092   -1.3507    0.2038 H         1 MOL         0.0630
      8 H4         -0.4296    1.3116    3.2444 H         1 MOL         0.0630
      9 H5          0.6478    1.5552    1.8505 H         1 MOL         0.0630
     10 H6          1.2448    0.7166    3.3178 H         1 MOL         0.0630
@<TRIPOS>BOND
     1    1    2 1
     2    2    3 2
     3    2    4 1
     4    1    5 1
     5    1    6 1
     6    1    7 1
     7    4    8 1
     8    4    9 1
     9    4   10 1
