@<TRIPOS>MOLECULE
1-(2-hydroxyethylamino)anthracene-9,10-dione
   33    35     0     0     0
SMALL
USER_CHARGES

@<TRIPOS>ATOM
      1 C1          1.2904   -1.6865   -0.3516 C.ar      1 MOL        -0.1197
      2 C2          0.9563   -0.4630    0.2256 C.ar      1 MOL        -0.1175
      3 C3          1.8484    0.1684    1.0928 C.ar      1 MOL        -0.0875
      4 C4          3.0812   -0.4277    1.3842 C.ar      1 MOL        -0.1276
      5 C5          3.4160   -1.6538    0.8057 C.ar      1 MOL        -0.1281
      6 C6          2.5179   -2.2839   -0.0640 C.ar      1 MOL        -0.0858
      7 C7          4.7134   -2.2938    1.1043 C.2       1 MOL         0.5829
      8 O1          5.0075   -3.3691    0.5970 O.2       1 MOL        -0.5242
      9 C8          5.6516   -1.6180    2.0237 C.ar      1 MOL        -0.0772
     10 C9          6.8845   -2.2140    2.3149 C.ar      1 MOL        -0.1479
     11 C10         7.7766   -1.5826    3.1822 C.ar      1 MOL        -0.0665
     12 C11         7.4425   -0.3591    3.7594 C.ar      1 MOL        -0.2058
     13 C12         6.2150    0.2382    3.4720 C.ar      1 MOL         0.2579
     14 C13         5.3168   -0.3919    2.6022 C.ar      1 MOL        -0.2241
     15 C14         4.0194    0.2481    2.3036 C.2       1 MOL         0.6027
     16 O2          3.6911    1.3222    2.7914 O.2       1 MOL        -0.5747
     17 N1          5.9467    1.4787    4.0953 N.pl3     1 MOL        -0.7775
     18 C15         6.8690    2.1141    4.9816 C.3       1 MOL         0.1796
     19 C16         6.3146    3.4463    5.5086 C.3       1 MOL         0.0982
     20 O3          5.1040    3.1929    6.2102 O.3       1 MOL        -0.5901
     21 H1          0.5941   -2.1759   -1.0263 H         1 MOL         0.1397
     22 H2          0.0002    0.0001   -0.0002 H         1 MOL         0.1411
     23 H3          1.5620    1.1218    1.5285 H         1 MOL         0.1620
     24 H4          2.7545   -3.2381   -0.5267 H         1 MOL         0.1590
     25 H5          7.1685   -3.1675    1.8781 H         1 MOL         0.1610
     26 H6          8.7334   -2.0451    3.4074 H         1 MOL         0.1402
     27 H7          8.1494    0.1194    4.4330 H         1 MOL         0.1365
     28 H8          5.0651    1.9055    3.8892 H         1 MOL         0.4732
     29 H9          7.8400    2.3029    4.4731 H         1 MOL         0.0562
     30 H10         7.0890    1.4620    5.8547 H         1 MOL         0.0562
     31 H11         6.0941    4.1455    4.6961 H         1 MOL         0.0555
     32 H12         7.0291    3.9112    6.1957 H         1 MOL         0.0555
     33 H13         4.7809    4.0510    6.5289 H         1 MOL         0.3965
@<TRIPOS>BOND
     1    1    6 ar
     2    1    2 ar
     3    2    3 ar
     4    3    4 ar
     5    4   15 1
     6    4    5 ar
     7    5    6 ar
     8    5    7 1
     9    7    8 2
    10    7    9 1
    11    9   14 ar
    12    9   10 ar
    13   10   11 ar
    14   11   12 ar
    15   12   13 ar
    16   13   14 ar
    17   14   15 1
    18   15   16 2
    19   13   17 1
    20   17   18 1
    21   18   19 1
    22   19   20 1
    23    1   21 1
    24    2   22 1
    25    3   23 1
    26    6   24 1
    27   10   25 1
    28   11   26 1
    29   12   27 1
    30   17   28 1
    31   18   29 1
    32   18   30 1
    33   19   31 1
    34   19   32 1
    35   20   33 1
