@<TRIPOS>MOLECULE
pyridine-3-carbaldehyde
   13    13     0     0     0
SMALL
USER_CHARGES

@<TRIPOS>ATOM
      1 C1          1.6520   -0.6227    2.8997 C.ar      1 MOL        -0.2594
      2 C2          1.3879   -0.0684    1.6522 C.ar      1 MOL        -0.0376
      3 C3          0.2265   -0.4197    0.9733 C.ar      1 MOL        -0.3158
      4 C4         -0.6317   -1.3224    1.5803 C.ar      1 MOL         0.4385
      5 N1         -0.4092   -1.8816    2.7908 N.ar      1 MOL        -0.6738
      6 C5          0.7299   -1.5161    3.4206 C.ar      1 MOL         0.4225
      7 C6         -0.0768    0.1408   -0.3318 C.2       1 MOL         0.5824
      8 O1          0.6601    0.9467   -0.9090 O.2       1 MOL        -0.5239
      9 H1          2.5500   -0.3619    3.4479 H         1 MOL         0.1514
     10 H2          2.0922    0.6368    1.2191 H         1 MOL         0.1600
     11 H3         -1.5539   -1.6337    1.0989 H         1 MOL         0.0252
     12 H4          0.8885   -1.9751    4.3909 H         1 MOL         0.0270
     13 H5         -1.0226   -0.1812   -0.8216 H         1 MOL         0.0034
@<TRIPOS>BOND
     1    1    6 ar
     2    1    2 ar
     3    2    3 ar
     4    3    4 ar
     5    4    5 ar
     6    5    6 ar
     7    3    7 1
     8    7    8 2
     9    1    9 1
    10    2   10 1
    11    4   11 1
    12    6   12 1
    13    7   13 1
