@<TRIPOS>MOLECULE
4-hydroxybenzaldehyde
   15    15     0     0     0
SMALL
USER_CHARGES

@<TRIPOS>ATOM
      1 C1          1.8851   -1.0363   -0.1124 C.ar      1 MOL        -0.0408
      2 C2          2.9210   -1.6309    0.6081 C.ar      1 MOL        -0.2028
      3 C3          2.8783   -1.6520    2.0022 C.ar      1 MOL         0.1568
      4 C4          1.7997   -1.0786    2.6757 C.ar      1 MOL        -0.2028
      5 C5          0.7638   -0.4841    1.9551 C.ar      1 MOL        -0.0408
      6 C6          0.8066   -0.4630    0.5610 C.ar      1 MOL        -0.2348
      7 C7         -0.2733    0.1568   -0.1904 C.2       1 MOL         0.5799
      8 O1         -1.2537    0.6804    0.3462 O.2       1 MOL        -0.5326
      9 O2          3.8888   -2.2320    2.7057 O.3       1 MOL        -0.4903
     10 H1          1.9283   -1.0252   -1.1985 H         1 MOL         0.1477
     11 H2          3.7586   -2.0759    0.0779 H         1 MOL         0.1471
     12 H3          1.7607   -1.0921    3.7615 H         1 MOL         0.1471
     13 H4         -0.0716   -0.0402    2.4904 H         1 MOL         0.1477
     14 H5         -0.1951    0.1489   -1.2994 H         1 MOL        -0.0053
     15 H6          4.5613   -2.5836    2.1006 H         1 MOL         0.4239
@<TRIPOS>BOND
     1    1    6 ar
     2    1    2 ar
     3    2    3 ar
     4    3    4 ar
     5    4    5 ar
     6    5    6 ar
     7    6    7 1
     8    7    8 2
     9    3    9 1
    10    1   10 1
    11    2   11 1
    12    4   12 1
    13    5   13 1
    14    7   14 1
    15    9   15 1
