@<TRIPOS>MOLECULE
1,2,3,4,5-pentachloro-6-nitro-benzene
   14    14     0     0     0
SMALL
USER_CHARGES

@<TRIPOS>ATOM
      1 C1          1.8851   -1.0363   -0.1124 C.ar      1 MOL        -0.1534
      2 C2          2.9210   -1.6309    0.6081 C.ar      1 MOL         0.0715
      3 C3          2.8783   -1.6520    2.0022 C.ar      1 MOL         0.0057
      4 C4          1.7997   -1.0786    2.6757 C.ar      1 MOL         0.0546
      5 C5          0.7638   -0.4841    1.9551 C.ar      1 MOL         0.0057
      6 C6          0.8066   -0.4630    0.5610 C.ar      1 MOL         0.0715
      7 Cl1        -0.4786    0.2740   -0.3566 Cl        1 MOL         0.0055
      8 Cl2        -0.5854    0.2338    2.7930 Cl        1 MOL        -0.0124
      9 Cl3         1.7467   -1.1045    4.4182 Cl        1 MOL        -0.0094
     10 Cl4         4.1749   -2.3959    2.8985 Cl        1 MOL        -0.0124
     11 Cl5         4.2593   -2.3421   -0.2517 Cl        1 MOL         0.0055
     12 N1          1.9282   -1.0154   -1.5413 N.pl3     1 MOL         0.3168
     13 O1          0.9853   -0.4765   -2.1605 O.2       1 MOL        -0.1745
     14 O2          2.9073   -1.5364   -2.1181 O.2       1 MOL        -0.1745
@<TRIPOS>BOND
     1    1    6 ar
     2    1    2 ar
     3    2    3 ar
     4    3    4 ar
     5    4    5 ar
     6    5    6 ar
     7    6    7 1
     8    5    8 1
     9    4    9 1
    10    3   10 1
    11    2   11 1
    12    1   12 1
    13   12   13 2
    14   12   14 2
