@<TRIPOS>MOLECULE
diethoxyphosphinothioylsulfanylmethylsulfanyl-diethoxy-thioxo-$l^{5}-phosphane
   41    40     0     0     0
SMALL
USER_CHARGES

@<TRIPOS>ATOM
      1 C1         -0.2584   -1.5437    4.1069 C.3       1 MOL        -0.0974
      2 C2         -0.5994   -2.2225    2.7974 C.3       1 MOL         0.1341
      3 O1          0.5968   -2.4552    2.0727 O.3       1 MOL        -0.4797
      4 P1          0.5493   -3.1803    0.6075 P.3       1 MOL         0.8285
      5 S1         -0.2306   -4.9783    0.6911 S.2       1 MOL        -0.4614
      6 O2          2.1586   -3.2115    0.3198 O.3       1 MOL        -0.4797
      7 C3          2.6611   -3.7694   -0.8828 C.3       1 MOL         0.1341
      8 C4          4.1720   -3.6658   -0.8831 C.3       1 MOL        -0.0974
      9 S2         -0.2874   -1.7696   -0.7467 S.3       1 MOL        -0.3403
     10 C5          0.8335   -0.3538   -0.7023 C.3       1 MOL         0.2868
     11 S3          0.2955    0.9766   -1.7997 S.3       1 MOL        -0.3403
     12 P2          1.7338    2.5354   -1.6047 P.3       1 MOL         0.8285
     13 S4          1.4859    4.1707   -2.6577 S.2       1 MOL        -0.4614
     14 O3          3.2102    1.8703   -1.8274 O.3       1 MOL        -0.4797
     15 C6          3.5274    1.2256   -3.0496 C.3       1 MOL         0.1341
     16 C7          4.9484    0.7064   -2.9811 C.3       1 MOL        -0.0974
     17 O4          1.8329    2.9088   -0.0156 O.3       1 MOL        -0.4797
     18 C8          0.6968    3.3698    0.6958 C.3       1 MOL         0.1341
     19 C9          1.0870    3.6332    2.1353 C.3       1 MOL        -0.0974
     20 H1         -1.1614   -1.3491    4.6923 H         1 MOL         0.0577
     21 H2          0.4197   -2.1665    4.6994 H         1 MOL         0.0577
     22 H3          0.2570   -0.5945    3.9266 H         1 MOL         0.0577
     23 H4         -1.2578   -1.5882    2.1964 H         1 MOL         0.0673
     24 H5         -1.0937   -3.1814    2.9793 H         1 MOL         0.0673
     25 H6          2.3495   -4.8170   -0.9447 H         1 MOL         0.0673
     26 H7          2.2396   -3.2208   -1.7312 H         1 MOL         0.0673
     27 H8          4.5932   -4.0883   -1.7996 H         1 MOL         0.0577
     28 H9          4.4866   -2.6204   -0.7986 H         1 MOL         0.0577
     29 H10         4.5946   -4.1958   -0.0230 H         1 MOL         0.0577
     30 H11         1.8285   -0.6853   -1.0112 H         1 MOL         0.1006
     31 H12         0.9049    0.0275    0.3192 H         1 MOL         0.1006
     32 H13         2.8257    0.4003   -3.2074 H         1 MOL         0.0673
     33 H14         3.4219    1.9453   -3.8677 H         1 MOL         0.0673
     34 H15         5.2261    0.2019   -3.9108 H         1 MOL         0.0577
     35 H16         5.6504    1.5271   -2.8009 H         1 MOL         0.0577
     36 H17         5.0616    0.0025   -2.1499 H         1 MOL         0.0577
     37 H18         0.3317    4.2880    0.2244 H         1 MOL         0.0673
     38 H19        -0.0869    2.6070    0.6453 H         1 MOL         0.0673
     39 H20         0.2309    3.9913    2.7139 H         1 MOL         0.0577
     40 H21         1.4733    2.7216    2.6028 H         1 MOL         0.0577
     41 H22         1.8858    4.3805    2.1871 H         1 MOL         0.0577
@<TRIPOS>BOND
     1    1    2 1
     2    2    3 1
     3    3    4 1
     4    4    5 2
     5    4    6 1
     6    6    7 1
     7    7    8 1
     8    4    9 1
     9    9   10 1
    10   10   11 1
    11   11   12 1
    12   12   13 2
    13   12   14 1
    14   14   15 1
    15   15   16 1
    16   12   17 1
    17   17   18 1
    18   18   19 1
    19    1   20 1
    20    1   21 1
    21    1   22 1
    22    2   23 1
    23    2   24 1
    24    7   25 1
    25    7   26 1
    26    8   27 1
    27    8   28 1
    28    8   29 1
    29   10   30 1
    30   10   31 1
    31   15   32 1
    32   15   33 1
    33   16   34 1
    34   16   35 1
    35   16   36 1
    36   18   37 1
    37   18   38 1
    38   19   39 1
    39   19   40 1
    40   19   41 1
