@<TRIPOS>MOLECULE
decan-1-ol
   33    32     0     0     0
SMALL
USER_CHARGES

@<TRIPOS>ATOM
      1 C1         -2.6216    2.3833    0.2536 C.3       1 MOL        -0.0919
      2 C2         -3.1471    2.2049   -1.1619 C.3       1 MOL        -0.0796
      3 C3         -3.2485    0.7272   -1.5393 C.3       1 MOL        -0.0787
      4 C4         -3.7777    0.5515   -2.9646 C.3       1 MOL        -0.0777
      5 C5         -3.8779   -0.9289   -3.3391 C.3       1 MOL        -0.0781
      6 C6         -4.4032   -1.1639   -4.7582 C.3       1 MOL        -0.0780
      7 C7         -4.5034   -2.6442   -5.1326 C.3       1 MOL        -0.0779
      8 C8         -5.0328   -2.8202   -6.5582 C.3       1 MOL        -0.0777
      9 C9         -5.1337   -4.3014   -6.9346 C.3       1 MOL        -0.0842
     10 C10        -5.6589   -4.5016   -8.3510 C.3       1 MOL         0.1320
     11 O1         -5.7330   -5.8882   -8.6490 O.3       1 MOL        -0.6011
     12 H1         -2.5522    3.4440    0.5154 H         1 MOL         0.0330
     13 H2         -1.6283    1.9364    0.3627 H         1 MOL         0.0330
     14 H3         -3.2923    1.8999    0.9708 H         1 MOL         0.0330
     15 H4         -4.1328    2.6780   -1.2419 H         1 MOL         0.0378
     16 H5         -2.4804    2.7233   -1.8608 H         1 MOL         0.0378
     17 H6         -2.2613    0.2571   -1.4536 H         1 MOL         0.0386
     18 H7         -3.9135    0.2136   -0.8344 H         1 MOL         0.0386
     19 H8         -3.1097    1.0711   -3.6606 H         1 MOL         0.0384
     20 H9         -4.7656    1.0200   -3.0494 H         1 MOL         0.0384
     21 H10        -2.8974   -1.4073   -3.2259 H         1 MOL         0.0395
     22 H11        -4.5562   -1.4302   -2.6373 H         1 MOL         0.0395
     23 H12        -3.7623   -0.6416   -5.4789 H         1 MOL         0.0390
     24 H13        -5.3984   -0.7080   -4.8329 H         1 MOL         0.0390
     25 H14        -5.1693   -3.1576   -4.4284 H         1 MOL         0.0411
     26 H15        -3.5190   -3.1189   -5.0556 H         1 MOL         0.0411
     27 H16        -4.3661   -2.3079   -7.2626 H         1 MOL         0.0388
     28 H17        -6.0180   -2.3463   -6.6422 H         1 MOL         0.0388
     29 H18        -4.1474   -4.7718   -6.8491 H         1 MOL         0.0552
     30 H19        -5.8044   -4.8021   -6.2258 H         1 MOL         0.0552
     31 H20        -4.9820   -4.0310   -9.0710 H         1 MOL         0.0194
     32 H21        -6.6547   -4.0617   -8.4658 H         1 MOL         0.0194
     33 H22        -6.0709   -5.9631   -9.5564 H         1 MOL         0.3985
@<TRIPOS>BOND
     1    1    2 1
     2    2    3 1
     3    3    4 1
     4    4    5 1
     5    5    6 1
     6    6    7 1
     7    7    8 1
     8    8    9 1
     9    9   10 1
    10   10   11 1
    11    1   12 1
    12    1   13 1
    13    1   14 1
    14    2   15 1
    15    2   16 1
    16    3   17 1
    17    3   18 1
    18    4   19 1
    19    4   20 1
    20    5   21 1
    21    5   22 1
    22    6   23 1
    23    6   24 1
    24    7   25 1
    25    7   26 1
    26    8   27 1
    27    8   28 1
    28    9   29 1
    29    9   30 1
    30   10   31 1
    31   10   32 1
    32   11   33 1
