@<TRIPOS>MOLECULE
1-bromohexane
   20    19     0     0     0
SMALL
USER_CHARGES

@<TRIPOS>ATOM
      1 C1          0.1559    1.4867   -2.8241 C.3       1 MOL        -0.0918
      2 C2         -0.5361    1.0930   -1.5289 C.3       1 MOL        -0.0796
      3 C3          0.3489    0.1853   -0.6748 C.3       1 MOL        -0.0795
      4 C4         -0.3512   -0.2087    0.6279 C.3       1 MOL        -0.0784
      5 C5          0.5382   -1.1185    1.4821 C.3       1 MOL        -0.0816
      6 C6         -0.1178   -1.5362    2.7890 C.3       1 MOL        -0.0071
      7 Br1         1.0540   -2.6885    3.8319 Br        1 MOL        -0.1813
      8 H1         -0.4843    2.1363   -3.4293 H         1 MOL         0.0340
      9 H2          0.3908    0.5955   -3.4143 H         1 MOL         0.0340
     10 H3          1.0921    2.0173   -2.6229 H         1 MOL         0.0340
     11 H4         -0.7915    1.9995   -0.9677 H         1 MOL         0.0384
     12 H5         -1.4768    0.5815   -1.7646 H         1 MOL         0.0384
     13 H6          1.2898    0.7002   -0.4450 H         1 MOL         0.0410
     14 H7          0.6048   -0.7176   -1.2424 H         1 MOL         0.0410
     15 H8         -1.2896   -0.7268    0.3958 H         1 MOL         0.0415
     16 H9         -0.6120    0.6984    1.1843 H         1 MOL         0.0415
     17 H10         1.4992   -0.6259    1.6742 H         1 MOL         0.0557
     18 H11         0.7580   -2.0267    0.9072 H         1 MOL         0.0557
     19 H12        -0.3770   -0.6815    3.4192 H         1 MOL         0.0720
     20 H13        -1.0179   -2.1276    2.5993 H         1 MOL         0.0720
@<TRIPOS>BOND
     1    1    2 1
     2    2    3 1
     3    3    4 1
     4    4    5 1
     5    5    6 1
     6    6    7 1
     7    1    8 1
     8    1    9 1
     9    1   10 1
    10    2   11 1
    11    2   12 1
    12    3   13 1
    13    3   14 1
    14    4   15 1
    15    4   16 1
    16    5   17 1
    17    5   18 1
    18    6   19 1
    19    6   20 1
