@<TRIPOS>MOLECULE
2-(2,3-dimethylanilino)benzoic acid
   33    34     0     0     0
SMALL
USER_CHARGES

@<TRIPOS>ATOM
      1 C1          1.9566   -1.0260   -1.6044 C.3       1 MOL        -0.0571
      2 C2          1.8851   -1.0363   -0.1124 C.ar      1 MOL        -0.0651
      3 C3          2.9210   -1.6309    0.6081 C.ar      1 MOL        -0.1315
      4 C4          2.8783   -1.6520    2.0022 C.ar      1 MOL        -0.1207
      5 C5          1.7997   -1.0786    2.6757 C.ar      1 MOL        -0.1418
      6 C6          0.7638   -0.4841    1.9551 C.ar      1 MOL         0.1363
      7 C7          0.8066   -0.4630    0.5610 C.ar      1 MOL        -0.0804
      8 C8         -0.3026    0.1739   -0.2162 C.3       1 MOL        -0.0607
      9 N1         -0.3196    0.0899    2.6557 N.pl3     1 MOL        -0.6681
     10 C9         -0.9208   -0.2113    3.8919 C.ar      1 MOL         0.2606
     11 C10        -0.9088   -1.5292    4.3488 C.ar      1 MOL        -0.2151
     12 C11        -1.4993   -1.8488    5.5714 C.ar      1 MOL        -0.0567
     13 C12        -2.1019   -0.8506    6.3370 C.ar      1 MOL        -0.1997
     14 C13        -2.1140    0.4672    5.8800 C.ar      1 MOL        -0.0302
     15 C14        -1.5234    0.7868    4.6574 C.ar      1 MOL        -0.2225
     16 C15        -1.5534    2.1730    4.2080 C.2       1 MOL         0.6596
     17 O1         -0.7002    2.7107    3.4976 O.2       1 MOL        -0.5713
     18 O2         -2.6490    2.8399    4.6603 O.3       1 MOL        -0.6009
     19 H1          2.4714   -0.1238   -1.9484 H         1 MOL         0.0462
     20 H2          2.4948   -1.9043   -1.9761 H         1 MOL         0.0462
     21 H3          0.9538   -1.0509   -2.0440 H         1 MOL         0.0462
     22 H4          3.7663   -2.0798    0.0930 H         1 MOL         0.1344
     23 H5          3.6856   -2.1146    2.5623 H         1 MOL         0.1351
     24 H6          1.7774   -1.1023    3.7623 H         1 MOL         0.1397
     25 H7         -0.0853    1.2341   -0.3829 H         1 MOL         0.0504
     26 H8         -0.4337   -0.3158   -1.1877 H         1 MOL         0.0504
     27 H9         -1.2559    0.0894    0.3180 H         1 MOL         0.0504
     28 H10        -0.7469    0.8721    2.1700 H         1 MOL         0.4606
     29 H11        -0.4421   -2.3157    3.7612 H         1 MOL         0.1473
     30 H12        -1.4887   -2.8746    5.9281 H         1 MOL         0.1331
     31 H13        -2.5613   -1.0995    7.2892 H         1 MOL         0.1394
     32 H14        -2.5861    1.2362    6.4861 H         1 MOL         0.1447
     33 H15        -2.6790    3.7741    4.3623 H         1 MOL         0.4414
@<TRIPOS>BOND
     1    1    2 1
     2    2    7 ar
     3    2    3 ar
     4    3    4 ar
     5    4    5 ar
     6    5    6 ar
     7    6    7 ar
     8    7    8 1
     9    6    9 1
    10    9   10 1
    11   10   15 ar
    12   10   11 ar
    13   11   12 ar
    14   12   13 ar
    15   13   14 ar
    16   14   15 ar
    17   15   16 1
    18   16   17 2
    19   16   18 1
    20    1   19 1
    21    1   20 1
    22    1   21 1
    23    3   22 1
    24    4   23 1
    25    5   24 1
    26    8   25 1
    27    8   26 1
    28    8   27 1
    29    9   28 1
    30   11   29 1
    31   12   30 1
    32   13   31 1
    33   14   32 1
    34   18   33 1
