@<TRIPOS>MOLECULE
(2R)-2-bromo-2-chloro-1,1,1-trifluoro-ethane
    8     7     0     0     0
SMALL
USER_CHARGES

@<TRIPOS>ATOM
      1 C1          0.2378    0.2165    0.6572 C.3       1 MOL         0.0236
      2 H1          1.2961    0.0701    0.8886 H         1 MOL         0.1333
      3 C2         -0.1048   -0.3253   -0.7101 C.3       1 MOL         0.6405
      4 F1          0.1556   -1.6512   -0.7803 F         1 MOL        -0.2177
      5 F2         -1.4071   -0.1477   -1.0191 F         1 MOL        -0.2177
      6 F3          0.6334    0.2733   -1.6719 F         1 MOL        -0.2177
      7 Cl1        -0.7279   -0.5711    1.9188 Cl        1 MOL        -0.0788
      8 Br1        -0.0830    2.1358    0.7165 Br        1 MOL        -0.0654
@<TRIPOS>BOND
     1    1    2 1
     2    1    3 1
     3    3    4 1
     4    3    5 1
     5    3    6 1
     6    1    7 1
     7    1    8 1
