@<TRIPOS>MOLECULE
ethylene
    6     5     0     0     0
SMALL
USER_CHARGES

@<TRIPOS>ATOM
      1 C1          0.2842    1.0298   -0.1842 C.2       1 MOL        -0.2180
      2 C2         -0.6398    1.9558   -0.4472 C.2       1 MOL        -0.2179
      3 H1          1.3359    1.2903   -0.1502 H         1 MOL         0.1090
      4 H2          0.0000    0.0000    0.0000 H         1 MOL         0.1090
      5 H3         -1.6915    1.6952   -0.4813 H         1 MOL         0.1090
      6 H4         -0.3558    2.9856   -0.6318 H         1 MOL         0.1090
@<TRIPOS>BOND
     1    1    2 2
     2    1    3 1
     3    1    4 1
     4    2    5 1
     5    2    6 1
