@<TRIPOS>MOLECULE
4-ethylphenol
   19    19     0     0     0
SMALL
USER_CHARGES

@<TRIPOS>ATOM
      1 C1          1.2633   -2.2422   -2.2061 C.3       1 MOL        -0.0900
      2 C2          1.9293   -1.0151   -1.6028 C.3       1 MOL        -0.0338
      3 C3          1.8851   -1.0363   -0.1124 C.ar      1 MOL        -0.1124
      4 C4          2.9210   -1.6309    0.6081 C.ar      1 MOL        -0.0920
      5 C5          2.8783   -1.6520    2.0022 C.ar      1 MOL        -0.1828
      6 C6          1.7997   -1.0786    2.6757 C.ar      1 MOL         0.1197
      7 C7          0.7638   -0.4841    1.9551 C.ar      1 MOL        -0.1828
      8 C8          0.8066   -0.4630    0.5610 C.ar      1 MOL        -0.0920
      9 O1          1.7576   -1.1000    4.0359 O.3       1 MOL        -0.4988
     10 H1          1.3010   -2.2172   -3.3004 H         1 MOL         0.0358
     11 H2          0.2124   -2.2892   -1.9040 H         1 MOL         0.0358
     12 H3          1.7533   -3.1638   -1.8740 H         1 MOL         0.0358
     13 H4          1.4384   -0.1072   -1.9739 H         1 MOL         0.0451
     14 H5          2.9711   -0.9553   -1.9405 H         1 MOL         0.0451
     15 H6          3.7658   -2.0790    0.0917 H         1 MOL         0.1337
     16 H7          3.6884   -2.1165    2.5581 H         1 MOL         0.1410
     17 H8         -0.0791   -0.0355    2.4742 H         1 MOL         0.1410
     18 H9         -0.0046    0.0033    0.0079 H         1 MOL         0.1337
     19 H10         0.9506   -0.6650    4.3543 H         1 MOL         0.4178
@<TRIPOS>BOND
     1    1    2 1
     2    2    3 1
     3    3    8 ar
     4    3    4 ar
     5    4    5 ar
     6    5    6 ar
     7    6    7 ar
     8    7    8 ar
     9    6    9 1
    10    1   10 1
    11    1   11 1
    12    1   12 1
    13    2   13 1
    14    2   14 1
    15    4   15 1
    16    5   16 1
    17    7   17 1
    18    8   18 1
    19    9   19 1
