@<TRIPOS>MOLECULE
diethyl butanedioate
   26    25     0     0     0
SMALL
USER_CHARGES

@<TRIPOS>ATOM
      1 C1         -1.2683    0.7034   -1.6643 C.3       1 MOL        -0.1006
      2 C2         -1.0422   -0.2243   -0.4896 C.3       1 MOL         0.1394
      3 O1         -2.0597    0.0072    0.4899 O.3       1 MOL        -0.4415
      4 C3         -1.9808   -0.7660    1.6139 C.2       1 MOL         0.6319
      5 O2         -1.1312   -1.6165    1.8403 O.2       1 MOL        -0.5445
      6 C4         -3.1260   -0.4056    2.5360 C.3       1 MOL        -0.1274
      7 C5         -3.1241   -1.2208    3.8272 C.3       1 MOL        -0.1274
      8 C6         -4.2693   -0.8604    4.7492 C.2       1 MOL         0.6319
      9 O3         -5.1226   -0.0145    4.5199 O.2       1 MOL        -0.5445
     10 O4         -4.1960   -1.6403    5.8689 O.3       1 MOL        -0.4415
     11 C7         -5.2246   -1.4224    6.8399 C.3       1 MOL         0.1394
     12 C8         -4.9950   -2.3579    8.0029 C.3       1 MOL        -0.1005
     13 H1         -0.5058    0.5521   -2.4334 H         1 MOL         0.0490
     14 H2         -2.2553    0.5328   -2.1065 H         1 MOL         0.0490
     15 H3         -1.2409    1.7493   -1.3407 H         1 MOL         0.0490
     16 H4         -0.0653   -0.0360   -0.0343 H         1 MOL         0.0520
     17 H5         -1.0927   -1.2692   -0.8102 H         1 MOL         0.0520
     18 H6         -4.0682   -0.5319    1.9917 H         1 MOL         0.0958
     19 H7         -3.0082    0.6529    2.7965 H         1 MOL         0.0958
     20 H8         -2.1953   -1.0063    4.3688 H         1 MOL         0.0958
     21 H9         -3.1685   -2.2946    3.6152 H         1 MOL         0.0958
     22 H10        -5.1761   -0.3812    7.1601 H         1 MOL         0.0520
     23 H11        -6.1874   -1.6160    6.3660 H         1 MOL         0.0520
     24 H12        -5.7660   -2.2170    8.7655 H         1 MOL         0.0490
     25 H13        -5.0111   -3.4017    7.6725 H         1 MOL         0.0490
     26 H14        -4.0137   -2.1826    8.4561 H         1 MOL         0.0490
@<TRIPOS>BOND
     1    1    2 1
     2    2    3 1
     3    3    4 1
     4    4    5 2
     5    4    6 1
     6    6    7 1
     7    7    8 1
     8    8    9 2
     9    8   10 1
    10   10   11 1
    11   11   12 1
    12    1   13 1
    13    1   14 1
    14    1   15 1
    15    2   16 1
    16    2   17 1
    17    6   18 1
    18    6   19 1
    19    7   20 1
    20    7   21 1
    21   11   22 1
    22   11   23 1
    23   12   24 1
    24   12   25 1
    25   12   26 1
