@<TRIPOS>MOLECULE
(2S)-2-(6-methoxy-2-naphthyl)propanoic acid
   31    32     0     0     0
SMALL
USER_CHARGES

@<TRIPOS>ATOM
      1 C1         -2.1511   -2.0709    2.3893 C.3       1 MOL        -0.0989
      2 C2         -1.8842   -1.7017    0.9278 C.3       1 MOL        -0.0963
      3 H1         -2.0054   -0.6140    0.8311 H         1 MOL         0.0748
      4 C3         -0.4966   -2.0341    0.4940 C.ar      1 MOL        -0.0909
      5 C4          0.3500   -1.0275    0.0392 C.ar      1 MOL        -0.1070
      6 C5          1.6484   -1.3369   -0.3665 C.ar      1 MOL        -0.1241
      7 C6          2.1168   -2.6602   -0.3222 C.ar      1 MOL         0.0061
      8 C7          3.4207   -2.9899   -0.7267 C.ar      1 MOL        -0.2111
      9 C8          3.8693   -4.3100   -0.6758 C.ar      1 MOL         0.1338
     10 C9          3.0228   -5.3167   -0.2210 C.ar      1 MOL        -0.1388
     11 C10         1.7243   -5.0072    0.1848 C.ar      1 MOL        -0.0892
     12 C11         1.2560   -3.6839    0.1403 C.ar      1 MOL        -0.0650
     13 C12        -0.0479   -3.3542    0.5448 C.ar      1 MOL        -0.0788
     14 O1          5.1359   -4.6133   -1.0716 O.3       1 MOL        -0.3252
     15 C13         5.5300   -5.9823   -0.9940 C.3       1 MOL         0.1115
     16 C14        -2.9235   -2.3496    0.0245 C.2       1 MOL         0.6194
     17 O2         -3.4923   -3.4105    0.2472 O.2       1 MOL        -0.4693
     18 O3         -3.1639   -1.6116   -1.0915 O.3       1 MOL        -0.5872
     19 H2         -2.0484   -3.1473    2.5654 H         1 MOL         0.0490
     20 H3         -1.4632   -1.5469    3.0619 H         1 MOL         0.0490
     21 H4         -3.1721   -1.7997    2.6799 H         1 MOL         0.0490
     22 H5          0.0081    0.0033   -0.0032 H         1 MOL         0.1317
     23 H6          2.2923   -0.5339   -0.7186 H         1 MOL         0.1344
     24 H7          4.0953   -2.2146   -1.0855 H         1 MOL         0.1407
     25 H8          3.3664   -6.3467   -0.1791 H         1 MOL         0.1513
     26 H9          1.0796   -5.8098    0.5366 H         1 MOL         0.1371
     27 H10        -0.7202   -4.1321    0.9031 H         1 MOL         0.1356
     28 H11         6.5587   -6.0749   -1.3396 H         1 MOL         0.0459
     29 H12         4.8620   -6.5790   -1.6139 H         1 MOL         0.0459
     30 H13         5.4578   -6.3033    0.0442 H         1 MOL         0.0459
     31 H14        -2.6499   -0.7794   -1.1637 H         1 MOL         0.4206
@<TRIPOS>BOND
     1    1    2 1
     2    2    3 1
     3    2    4 1
     4    4   13 ar
     5    4    5 ar
     6    5    6 ar
     7    6    7 ar
     8    7   12 ar
     9    7    8 ar
    10    8    9 ar
    11    9   10 ar
    12   10   11 ar
    13   11   12 ar
    14   12   13 ar
    15    9   14 1
    16   14   15 1
    17    2   16 1
    18   16   17 2
    19   16   18 1
    20    1   19 1
    21    1   20 1
    22    1   21 1
    23    5   22 1
    24    6   23 1
    25    8   24 1
    26   10   25 1
    27   11   26 1
    28   13   27 1
    29   15   28 1
    30   15   29 1
    31   15   30 1
    32   18   31 1
