@<TRIPOS>MOLECULE
3-(5,6-dihydrodibenzo[1,2-d:2',1'-f][7]annulen-11-ylidene)-N,N-dimethyl-propan-1-amine
   44    46     0     0     0
SMALL
USER_CHARGES

@<TRIPOS>ATOM
      1 C1          7.7567    5.1892    1.6875 C.3       1 MOL         0.1424
      2 N1          7.5678    4.2523    0.5806 N.3       1 MOL        -0.7096
      3 C2          7.7285    4.9370   -0.7016 C.3       1 MOL         0.1424
      4 C3          6.2722    3.6338    0.6612 C.3       1 MOL         0.1595
      5 C4          6.1997    2.3355   -0.1368 C.3       1 MOL        -0.0586
      6 C5          4.8474    1.6884   -0.0536 C.2       1 MOL        -0.1467
      7 C6          4.6423    0.3588   -0.1305 C.2       1 MOL        -0.0159
      8 C7          5.8487   -0.4922   -0.2018 C.ar      1 MOL        -0.0400
      9 C8          6.7094   -0.4296   -1.3084 C.ar      1 MOL        -0.1182
     10 C9          7.8448   -1.2373   -1.3643 C.ar      1 MOL        -0.1348
     11 C10         8.1284   -2.1133   -0.3198 C.ar      1 MOL        -0.1256
     12 C11         7.2761   -2.1855    0.7821 C.ar      1 MOL        -0.1339
     13 C12         6.1313   -1.3791    0.8503 C.ar      1 MOL        -0.0589
     14 C13         5.2055   -1.4654    2.0365 C.3       1 MOL        -0.0321
     15 C14         3.8527   -2.0712    1.6602 C.3       1 MOL        -0.0321
     16 C15         2.9078   -1.2747    0.7778 C.ar      1 MOL        -0.0589
     17 C16         3.2572   -0.1741   -0.0358 C.ar      1 MOL        -0.0400
     18 C17         2.2585    0.4185   -0.8401 C.ar      1 MOL        -0.1182
     19 C18         0.9427   -0.0433   -0.8304 C.ar      1 MOL        -0.1348
     20 C19         0.5971   -1.1183   -0.0266 C.ar      1 MOL        -0.1256
     21 C20         1.5701   -1.7294    0.7614 C.ar      1 MOL        -0.1339
     22 H1          7.6354    4.6716    2.6426 H         1 MOL         0.0322
     23 H2          7.0216    5.9965    1.6290 H         1 MOL         0.0322
     24 H3          8.7589    5.6242    1.6478 H         1 MOL         0.0322
     25 H4          7.5834    4.2200   -1.5025 H         1 MOL         0.0322
     26 H5          8.7276    5.3565   -0.7549 H         1 MOL         0.0322
     27 H6          6.9903    5.7289   -0.7736 H         1 MOL         0.0322
     28 H7          6.0795    3.4331    1.7200 H         1 MOL         0.0324
     29 H8          5.5326    4.3628    0.3137 H         1 MOL         0.0324
     30 H9          6.4768    2.5255   -1.1811 H         1 MOL         0.0632
     31 H10         6.9370    1.6302    0.2648 H         1 MOL         0.0632
     32 H11         3.9893    2.3405    0.0877 H         1 MOL         0.1283
     33 H12         6.5252    0.2468   -2.1318 H         1 MOL         0.1328
     34 H13         8.5137   -1.1780   -2.2186 H         1 MOL         0.1314
     35 H14         9.0200   -2.7346   -0.3597 H         1 MOL         0.1306
     36 H15         7.5190   -2.8717    1.5817 H         1 MOL         0.1301
     37 H16         5.6470   -2.1185    2.7602 H         1 MOL         0.0527
     38 H17         5.0665   -0.4849    2.4342 H         1 MOL         0.0527
     39 H18         3.9942   -3.0959    1.2040 H         1 MOL         0.0527
     40 H19         3.3107   -2.3232    2.6172 H         1 MOL         0.0527
     41 H20         2.5114    1.2641   -1.4883 H         1 MOL         0.1328
     42 H21         0.1943    0.4403   -1.4500 H         1 MOL         0.1314
     43 H22        -0.4243   -1.4819   -0.0074 H         1 MOL         0.1306
     44 H23         1.2829   -2.5825    1.3841 H         1 MOL         0.1301
@<TRIPOS>BOND
     1    1    2 1
     2    2    3 1
     3    2    4 1
     4    4    5 1
     5    5    6 1
     6    6    7 2
     7    7   17 1
     8    7    8 1
     9    8   13 ar
    10    8    9 ar
    11    9   10 ar
    12   10   11 ar
    13   11   12 ar
    14   12   13 ar
    15   13   14 1
    16   14   15 1
    17   15   16 1
    18   16   21 ar
    19   16   17 ar
    20   17   18 ar
    21   18   19 ar
    22   19   20 ar
    23   20   21 ar
    24    1   22 1
    25    1   23 1
    26    1   24 1
    27    3   25 1
    28    3   26 1
    29    3   27 1
    30    4   28 1
    31    4   29 1
    32    5   30 1
    33    5   31 1
    34    6   32 1
    35    9   33 1
    36   10   34 1
    37   11   35 1
    38   12   36 1
    39   14   37 1
    40   14   38 1
    41   15   39 1
    42   15   40 1
    43   18   41 1
    44   19   42 1
    45   20   43 1
    46   21   44 1
