@<TRIPOS>MOLECULE
2,2-dichloro-1,1-difluoro-1-methoxy-ethane
   12    11     0     0     0
SMALL
USER_CHARGES

@<TRIPOS>ATOM
      1 C1         -1.0890    0.3385   -1.5860 C.3       1 MOL         0.1091
      2 O1          0.0824    0.4878   -0.7962 O.3       1 MOL        -0.4389
      3 C2          0.0408   -0.2867    0.3986 C.3       1 MOL         0.5787
      4 C3          1.3131   -0.0931    1.2065 C.3       1 MOL         0.1146
      5 Cl1         1.5258    1.6172    1.6620 Cl        1 MOL        -0.0994
      6 Cl2         1.2789   -1.0956    2.6786 Cl        1 MOL        -0.0994
      7 F1         -1.0504    0.0606    1.1231 F         1 MOL        -0.2305
      8 F2         -0.0928   -1.5932    0.0559 F         1 MOL        -0.2305
      9 H1         -1.0031    0.9521   -2.4861 H         1 MOL         0.0566
     10 H2         -1.9626    0.6449   -1.0053 H         1 MOL         0.0566
     11 H3         -1.1936   -0.7109   -1.8718 H         1 MOL         0.0566
     12 H4          2.1907   -0.3892    0.6247 H         1 MOL         0.1266
@<TRIPOS>BOND
     1    1    2 1
     2    2    3 1
     3    3    4 1
     4    4    5 1
     5    4    6 1
     6    3    7 1
     7    3    8 1
     8    1    9 1
     9    1   10 1
    10    1   11 1
    11    4   12 1
