@<TRIPOS>MOLECULE
ethyl formate
   11    10     0     0     0
SMALL
USER_CHARGES

@<TRIPOS>ATOM
      1 C1          1.0616   -0.2681   -0.0006 C.3       1 MOL        -0.0994
      2 C2          1.9101    0.9126   -0.4220 C.3       1 MOL         0.1324
      3 O1          1.5170    1.3236   -1.7228 O.3       1 MOL        -0.4476
      4 C3          2.1979    2.3853   -2.2392 C.2       1 MOL         0.6288
      5 O2          3.1000    3.0130   -1.7072 O.2       1 MOL        -0.5395
      6 H1          1.3393   -0.6108    1.0001 H         1 MOL         0.0482
      7 H2         -0.0000   -0.0002   -0.0006 H         1 MOL         0.0482
      8 H3          1.1801   -1.0990   -0.7040 H         1 MOL         0.0482
      9 H4          2.9684    0.6361   -0.4446 H         1 MOL         0.0505
     10 H5          1.7730    1.7499    0.2687 H         1 MOL         0.0505
     11 H6          1.8053    2.6060   -3.2438 H         1 MOL         0.0799
@<TRIPOS>BOND
     1    1    2 1
     2    2    3 1
     3    3    4 1
     4    4    5 2
     5    1    6 1
     6    1    7 1
     7    1    8 1
     8    2    9 1
     9    2   10 1
    10    4   11 1
