@<TRIPOS>MOLECULE
propanamide
   12    11     0     0     0
SMALL
USER_CHARGES

@<TRIPOS>ATOM
      1 C1          0.6297    0.2716    0.8536 C.3       1 MOL        -0.0847
      2 C2          1.0473   -0.9600    1.6362 C.3       1 MOL        -0.1520
      3 C3         -0.1381   -1.7285    2.1839 C.2       1 MOL         0.6595
      4 O1         -1.3075   -1.3952    2.0155 O.2       1 MOL        -0.6076
      5 N1          0.2453   -2.8463    2.8933 N.am      1 MOL        -0.6865
      6 H1          1.5103    0.7994    0.4748 H         1 MOL         0.0459
      7 H2         -0.0000    0.0000    0.0000 H         1 MOL         0.0459
      8 H3          0.0605    0.9634    1.4834 H         1 MOL         0.0459
      9 H4          1.6871   -0.6636    2.4751 H         1 MOL         0.0579
     10 H5          1.6257   -1.6288    0.9888 H         1 MOL         0.0579
     11 H6          1.2196   -3.1020    3.0184 H         1 MOL         0.3090
     12 H7         -0.4449   -3.4571    3.3176 H         1 MOL         0.3090
@<TRIPOS>BOND
     1    1    2 1
     2    2    3 1
     3    3    4 2
     4    3    5 am
     5    1    6 1
     6    1    7 1
     7    1    8 1
     8    2    9 1
     9    2   10 1
    10    5   11 1
    11    5   12 1
