@<TRIPOS>MOLECULE
(Z)-pent-2-ene
   15    14     0     0     0
SMALL
USER_CHARGES

@<TRIPOS>ATOM
      1 C1          2.0323    2.2809   -0.2501 C.3       1 MOL        -0.0879
      2 C2          1.0743    1.7589    0.8093 C.3       1 MOL        -0.0529
      3 C3          0.8257    0.2886    0.6459 C.2       1 MOL        -0.1704
      4 C4          1.5643   -0.6624    1.2357 C.2       1 MOL        -0.1687
      5 C5          2.7262   -0.3780    2.1287 C.3       1 MOL        -0.0673
      6 H1          2.1996    3.3540   -0.1127 H         1 MOL         0.0340
      7 H2          1.6302    2.1270   -1.2572 H         1 MOL         0.0340
      8 H3          3.0033    1.7777   -0.1900 H         1 MOL         0.0340
      9 H4          1.4999    1.9352    1.8037 H         1 MOL         0.0430
     10 H5          0.1372    2.3255    0.7584 H         1 MOL         0.0430
     11 H6          0.0000    0.0000    0.0000 H         1 MOL         0.1195
     12 H7          1.3245   -1.7092    1.0691 H         1 MOL         0.1171
     13 H8          2.3868   -0.2911    3.1654 H         1 MOL         0.0409
     14 H9          3.2402    0.5500    1.8591 H         1 MOL         0.0409
     15 H10         3.4494   -1.1972    2.0712 H         1 MOL         0.0409
@<TRIPOS>BOND
     1    1    2 1
     2    2    3 1
     3    3    4 2
     4    4    5 1
     5    1    6 1
     6    1    7 1
     7    1    8 1
     8    2    9 1
     9    2   10 1
    10    3   11 1
    11    4   12 1
    12    5   13 1
    13    5   14 1
    14    5   15 1
