@<TRIPOS>MOLECULE
4-bromophenol
   13    13     0     0     0
SMALL
USER_CHARGES

@<TRIPOS>ATOM
      1 C1          1.8851   -1.0363   -0.1124 C.ar      1 MOL        -0.1875
      2 C2          2.9210   -1.6309    0.6081 C.ar      1 MOL        -0.0659
      3 C3          2.8783   -1.6520    2.0022 C.ar      1 MOL        -0.0661
      4 C4          1.7997   -1.0786    2.6757 C.ar      1 MOL        -0.0659
      5 C5          0.7638   -0.4841    1.9551 C.ar      1 MOL        -0.1875
      6 C6          0.8066   -0.4630    0.5610 C.ar      1 MOL         0.1379
      7 O1         -0.2039    0.1168   -0.1428 O.3       1 MOL        -0.4928
      8 Br1         4.2813   -2.4580    2.9784 Br        1 MOL        -0.0874
      9 H1          1.9241   -1.0238   -1.1981 H         1 MOL         0.1478
     10 H2          3.7542   -2.0740    0.0683 H         1 MOL         0.1486
     11 H3          1.7508   -1.0870    3.7615 H         1 MOL         0.1486
     12 H4         -0.0743   -0.0400    2.4852 H         1 MOL         0.1478
     13 H5         -0.8765    0.4683    0.4621 H         1 MOL         0.4225
@<TRIPOS>BOND
     1    1    6 ar
     2    1    2 ar
     3    2    3 ar
     4    3    4 ar
     5    4    5 ar
     6    5    6 ar
     7    6    7 1
     8    3    8 1
     9    1    9 1
    10    2   10 1
    11    4   11 1
    12    5   12 1
    13    7   13 1
