@<TRIPOS>MOLECULE
pentylcyclopentane
   30    30     0     0     0
SMALL
USER_CHARGES

@<TRIPOS>ATOM
      1 C1          1.6439    1.0190   -8.5870 C.3       1 MOL        -0.0926
      2 C2          1.0970    1.2147   -7.1819 C.3       1 MOL        -0.0801
      3 C3          1.1193   -0.0897   -6.3855 C.3       1 MOL        -0.0792
      4 C4          0.5686    0.1113   -4.9728 C.3       1 MOL        -0.0800
      5 C5          0.5910   -1.1933   -4.1767 C.3       1 MOL        -0.0703
      6 C6          0.0448   -0.9981   -2.7731 C.3       1 MOL        -0.0685
      7 C7         -1.4278   -0.6007   -2.7506 C.3       1 MOL        -0.0771
      8 C8         -1.8730   -0.9064   -1.3237 C.3       1 MOL        -0.0798
      9 C9         -0.9147   -1.9774   -0.7996 C.3       1 MOL        -0.0798
     10 C10         0.0492   -2.2777   -1.9427 C.3       1 MOL        -0.0771
     11 H1          1.6242    1.9576   -9.1500 H         1 MOL         0.0323
     12 H2          1.0405    0.2846   -9.1297 H         1 MOL         0.0323
     13 H3          2.6764    0.6563   -8.5590 H         1 MOL         0.0323
     14 H4          0.0709    1.5949   -7.2454 H         1 MOL         0.0385
     15 H5          1.6940    1.9761   -6.6665 H         1 MOL         0.0385
     16 H6          2.1474   -0.4679   -6.3288 H         1 MOL         0.0393
     17 H7          0.5242   -0.8490   -6.9075 H         1 MOL         0.0393
     18 H8         -0.4594    0.4896   -5.0295 H         1 MOL         0.0397
     19 H9          1.1639    0.8704   -4.4509 H         1 MOL         0.0397
     20 H10        -0.0062   -1.9545   -4.6920 H         1 MOL         0.0408
     21 H11         1.6171   -1.5736   -4.1135 H         1 MOL         0.0408
     22 H12         0.6375   -0.2294   -2.2603 H         1 MOL         0.0473
     23 H13        -1.5796    0.4516   -3.0109 H         1 MOL         0.0415
     24 H14        -2.0081   -1.2083   -3.4563 H         1 MOL         0.0415
     25 H15        -1.8027   -0.0074   -0.7007 H         1 MOL         0.0394
     26 H16        -2.9144   -1.2428   -1.2960 H         1 MOL         0.0394
     27 H17        -0.3676   -1.5914    0.0684 H         1 MOL         0.0394
     28 H18        -1.4467   -2.8786   -0.4784 H         1 MOL         0.0394
     29 H19         1.0485   -2.5362   -1.5790 H         1 MOL         0.0415
     30 H20        -0.3249   -3.1266   -2.5285 H         1 MOL         0.0415
@<TRIPOS>BOND
     1    1    2 1
     2    2    3 1
     3    3    4 1
     4    4    5 1
     5    5    6 1
     6    6   10 1
     7    6    7 1
     8    7    8 1
     9    8    9 1
    10    9   10 1
    11    1   11 1
    12    1   12 1
    13    1   13 1
    14    2   14 1
    15    2   15 1
    16    3   16 1
    17    3   17 1
    18    4   18 1
    19    4   19 1
    20    5   20 1
    21    5   21 1
    22    6   22 1
    23    7   23 1
    24    7   24 1
    25    8   25 1
    26    8   26 1
    27    9   27 1
    28    9   28 1
    29   10   29 1
    30   10   30 1
