@<TRIPOS>MOLECULE
tetrafluoromethane
    5     4     0     0     0
SMALL
USER_CHARGES

@<TRIPOS>ATOM
      1 C1         -0.0000    0.0000    0.0000 C.3       1 MOL         0.8622
      2 F1          0.9413    0.8517    0.4400 F         1 MOL        -0.2155
      3 F2          0.4892   -1.2513    0.0080 F         1 MOL        -0.2155
      4 F3         -0.3559    0.3337   -1.2518 F         1 MOL        -0.2155
      5 F4         -1.0746    0.0659    0.8038 F         1 MOL        -0.2155
@<TRIPOS>BOND
     1    1    2 1
     2    1    3 1
     3    1    4 1
     4    1    5 1
