@<TRIPOS>MOLECULE
methyl hexanoate
   23    22     0     0     0
SMALL
USER_CHARGES

@<TRIPOS>ATOM
      1 C1          0.0401    1.0640    0.1435 C.3       1 MOL        -0.0900
      2 C2         -0.1604    1.4356    1.6042 C.3       1 MOL        -0.0827
      3 C3          0.9236    0.8238    2.4919 C.3       1 MOL        -0.0803
      4 C4          0.7154    1.2021    3.9617 C.3       1 MOL        -0.0725
      5 C5          1.7849    0.6046    4.8759 C.3       1 MOL        -0.1269
      6 C6          1.5949    0.9681    6.3320 C.2       1 MOL         0.6319
      7 O1          0.6915    1.6656    6.7723 O.2       1 MOL        -0.5399
      8 O2          2.6094    0.4176    7.0627 O.3       1 MOL        -0.4428
      9 C7          2.5835    0.7017    8.4652 C.3       1 MOL         0.1246
     10 H1         -0.7401    1.5061   -0.4843 H         1 MOL         0.0326
     11 H2          1.0123    1.4120   -0.2199 H         1 MOL         0.0326
     12 H3          0.0006   -0.0227    0.0202 H         1 MOL         0.0326
     13 H4         -1.1480    1.0895    1.9306 H         1 MOL         0.0420
     14 H5         -0.1501    2.5273    1.7021 H         1 MOL         0.0420
     15 H6          0.9135   -0.2663    2.3780 H         1 MOL         0.0457
     16 H7          1.9090    1.1730    2.1600 H         1 MOL         0.0457
     17 H8          0.7515    2.2945    4.0546 H         1 MOL         0.0512
     18 H9         -0.2825    0.8871    4.2894 H         1 MOL         0.0512
     19 H10         1.7882   -0.4867    4.7759 H         1 MOL         0.0766
     20 H11         2.7677    0.9842    4.5740 H         1 MOL         0.0766
     21 H12         3.4336    0.2137    8.9366 H         1 MOL         0.0499
     22 H13         1.6474    0.3336    8.8795 H         1 MOL         0.0499
     23 H14         2.6519    1.7794    8.5952 H         1 MOL         0.0499
@<TRIPOS>BOND
     1    1    2 1
     2    2    3 1
     3    3    4 1
     4    4    5 1
     5    5    6 1
     6    6    7 2
     7    6    8 1
     8    8    9 1
     9    1   10 1
    10    1   11 1
    11    1   12 1
    12    2   13 1
    13    2   14 1
    14    3   15 1
    15    3   16 1
    16    4   17 1
    17    4   18 1
    18    5   19 1
    19    5   20 1
    20    9   21 1
    21    9   22 1
    22    9   23 1
