@<TRIPOS>MOLECULE
(3R)-3-methylhexane
   23    22     0     0     0
SMALL
USER_CHARGES

@<TRIPOS>ATOM
      1 C1          0.0168    0.6233   -0.8539 C.3       1 MOL        -0.0921
      2 C2          0.5356   -0.1292   -2.0709 C.3       1 MOL        -0.0802
      3 C3          1.9784   -0.5962   -1.8601 C.3       1 MOL        -0.0727
      4 C4          2.5977   -1.3718   -3.0415 C.3       1 MOL        -0.0625
      5 H1          3.6214   -1.6353   -2.7416 H         1 MOL         0.0428
      6 C5          2.7132   -0.4920   -4.2908 C.3       1 MOL        -0.0907
      7 C6          1.8671   -2.6769   -3.4092 C.3       1 MOL        -0.0769
      8 C7          1.8195   -3.6913   -2.2756 C.3       1 MOL        -0.0922
      9 H2         -1.0147    0.9556   -1.0084 H         1 MOL         0.0321
     10 H3          0.6343    1.5024   -0.6435 H         1 MOL         0.0321
     11 H4          0.0365   -0.0243    0.0283 H         1 MOL         0.0321
     12 H5         -0.1199   -0.9860   -2.2583 H         1 MOL         0.0395
     13 H6          0.4702    0.5305   -2.9424 H         1 MOL         0.0395
     14 H7          2.6075    0.2728   -1.6314 H         1 MOL         0.0377
     15 H8          2.0180   -1.2331   -0.9664 H         1 MOL         0.0377
     16 H9          3.1535   -1.0506   -5.1232 H         1 MOL         0.0332
     17 H10         1.7385   -0.1106   -4.6111 H         1 MOL         0.0332
     18 H11         3.3580    0.3716   -4.0940 H         1 MOL         0.0332
     19 H12         2.3247   -3.1406   -4.2907 H         1 MOL         0.0383
     20 H13         0.8345   -2.4353   -3.6917 H         1 MOL         0.0383
     21 H14         1.2941   -4.6032   -2.5734 H         1 MOL         0.0326
     22 H15         1.2867   -3.2693   -1.4174 H         1 MOL         0.0326
     23 H16         2.8282   -3.9620   -1.9479 H         1 MOL         0.0326
@<TRIPOS>BOND
     1    1    2 1
     2    2    3 1
     3    3    4 1
     4    4    5 1
     5    4    6 1
     6    4    7 1
     7    7    8 1
     8    1    9 1
     9    1   10 1
    10    1   11 1
    11    2   12 1
    12    2   13 1
    13    3   14 1
    14    3   15 1
    15    6   16 1
    16    6   17 1
    17    6   18 1
    18    7   19 1
    19    7   20 1
    20    8   21 1
    21    8   22 1
    22    8   23 1
