@<TRIPOS>MOLECULE
phenylmethanol
   16    16     0     0     0
SMALL
USER_CHARGES

@<TRIPOS>ATOM
      1 C1          1.8851   -1.0363   -0.1124 C.ar      1 MOL        -0.1233
      2 C2          2.9210   -1.6309    0.6081 C.ar      1 MOL        -0.1339
      3 C3          2.8783   -1.6520    2.0022 C.ar      1 MOL        -0.1084
      4 C4          1.7997   -1.0786    2.6757 C.ar      1 MOL        -0.0871
      5 C5          0.7638   -0.4841    1.9551 C.ar      1 MOL        -0.1084
      6 C6          0.8066   -0.4630    0.5610 C.ar      1 MOL        -0.1339
      7 C7          1.7548   -1.1014    4.1663 C.3       1 MOL         0.1772
      8 O1          1.0927   -2.2828    4.6009 O.3       1 MOL        -0.5912
      9 H1          1.9176   -1.0210   -1.1980 H         1 MOL         0.1304
     10 H2          3.7604   -2.0783    0.0841 H         1 MOL         0.1315
     11 H3          3.6899   -2.1173    2.5553 H         1 MOL         0.1332
     12 H4         -0.0804   -0.0348    2.4713 H         1 MOL         0.1332
     13 H5         -0.0006   -0.0010    0.0001 H         1 MOL         0.1315
     14 H6          2.7649   -1.0862    4.5980 H         1 MOL         0.0256
     15 H7          1.2154   -0.2292    4.5603 H         1 MOL         0.0256
     16 H8          1.0854   -2.2578    5.5711 H         1 MOL         0.3978
@<TRIPOS>BOND
     1    1    6 ar
     2    1    2 ar
     3    2    3 ar
     4    3    4 ar
     5    4    5 ar
     6    5    6 ar
     7    4    7 1
     8    7    8 1
     9    1    9 1
    10    2   10 1
    11    3   11 1
    12    5   12 1
    13    6   13 1
    14    7   14 1
    15    7   15 1
    16    8   16 1
