@<TRIPOS>MOLECULE
hexan-1-amine
   22    21     0     0     0
SMALL
USER_CHARGES

@<TRIPOS>ATOM
      1 C1         -2.3102   -1.4084    1.8834 C.3       1 MOL        -0.0913
      2 C2         -1.1043   -0.4942    1.7312 C.3       1 MOL        -0.0800
      3 C3         -1.2660    0.8539    2.4368 C.3       1 MOL        -0.0778
      4 C4         -0.0497    1.7702    2.2805 C.3       1 MOL        -0.0726
      5 C5         -0.2653    3.1033    3.0050 C.3       1 MOL        -0.1200
      6 C6          0.9296    4.0421    2.8694 C.3       1 MOL         0.1534
      7 N1          0.7290    5.2929    3.5484 N.3       1 MOL        -0.9095
      8 H1         -2.1511   -2.3588    1.3644 H         1 MOL         0.0335
      9 H2         -2.5243   -1.6194    2.9353 H         1 MOL         0.0335
     10 H3         -3.1982   -0.9326    1.4545 H         1 MOL         0.0335
     11 H4         -0.8985   -0.3360    0.6662 H         1 MOL         0.0376
     12 H5         -0.2278   -1.0022    2.1509 H         1 MOL         0.0376
     13 H6         -2.1624    1.3612    2.0598 H         1 MOL         0.0380
     14 H7         -1.4363    0.6629    3.5036 H         1 MOL         0.0380
     15 H8          0.1388    1.9591    1.2182 H         1 MOL         0.0407
     16 H9          0.8393    1.2726    2.6863 H         1 MOL         0.0407
     17 H10        -1.1673    3.5912    2.6155 H         1 MOL         0.0367
     18 H11        -0.4371    2.9100    4.0708 H         1 MOL         0.0367
     19 H12         1.1402    4.2621    1.8181 H         1 MOL         0.0506
     20 H13         1.8203    3.5812    3.3077 H         1 MOL         0.0506
     21 H14         0.9155    5.3515    4.5372 H         1 MOL         0.3450
     22 H15         0.2189    6.0283    3.0845 H         1 MOL         0.3450
@<TRIPOS>BOND
     1    1    2 1
     2    2    3 1
     3    3    4 1
     4    4    5 1
     5    5    6 1
     6    6    7 1
     7    1    8 1
     8    1    9 1
     9    1   10 1
    10    2   11 1
    11    2   12 1
    12    3   13 1
    13    3   14 1
    14    4   15 1
    15    4   16 1
    16    5   17 1
    17    5   18 1
    18    6   19 1
    19    6   20 1
    20    7   21 1
    21    7   22 1
