@<TRIPOS>MOLECULE
2,2-dimethylpentane
   23    22     0     0     0
SMALL
USER_CHARGES

@<TRIPOS>ATOM
      1 C1         -2.9139   -1.4057    0.0155 C.3       1 MOL        -0.0925
      2 C2         -1.4069   -1.5537    0.1742 C.3       1 MOL        -0.0800
      3 C3         -0.7212   -0.1852    0.2516 C.3       1 MOL        -0.0692
      4 C4          0.8221   -0.2124    0.4145 C.3       1 MOL        -0.0555
      5 C5          1.4938   -0.9341   -0.7653 C.3       1 MOL        -0.0855
      6 C6          1.3944    1.2099    0.5306 C.3       1 MOL        -0.0855
      7 C7          1.1544   -0.9797    1.7095 C.3       1 MOL        -0.0855
      8 H1         -3.4009   -2.3845   -0.0395 H         1 MOL         0.0319
      9 H2         -3.3333   -0.8656    0.8702 H         1 MOL         0.0319
     10 H3         -3.1600   -0.8470   -0.8931 H         1 MOL         0.0319
     11 H4         -1.2085   -2.1335    1.0813 H         1 MOL         0.0395
     12 H5         -1.0229   -2.1277   -0.6752 H         1 MOL         0.0395
     13 H6         -1.1573    0.3748    1.0902 H         1 MOL         0.0382
     14 H7         -0.9729    0.3813   -0.6553 H         1 MOL         0.0382
     15 H8          2.5831   -0.9524   -0.6487 H         1 MOL         0.0336
     16 H9          1.1469   -1.9682   -0.8600 H         1 MOL         0.0336
     17 H10         1.2700   -0.4312   -1.7133 H         1 MOL         0.0336
     18 H11         2.4843    1.1877    0.6455 H         1 MOL         0.0336
     19 H12         0.9798    1.7325    1.3996 H         1 MOL         0.0336
     20 H13         1.1768    1.8094   -0.3593 H         1 MOL         0.0336
     21 H14         2.2368   -1.0290    1.8737 H         1 MOL         0.0336
     22 H15         0.7076   -0.4952    2.5852 H         1 MOL         0.0336
     23 H16         0.7751   -2.0071    1.6689 H         1 MOL         0.0336
@<TRIPOS>BOND
     1    1    2 1
     2    2    3 1
     3    3    4 1
     4    4    5 1
     5    4    6 1
     6    4    7 1
     7    1    8 1
     8    1    9 1
     9    1   10 1
    10    2   11 1
    11    2   12 1
    12    3   13 1
    13    3   14 1
    14    5   15 1
    15    5   16 1
    16    5   17 1
    17    6   18 1
    18    6   19 1
    19    6   20 1
    20    7   21 1
    21    7   22 1
    22    7   23 1
