@<TRIPOS>MOLECULE
1,2,3,4,7-pentachlorodibenzo-p-dioxin
   22    24     0     0     0
SMALL
USER_CHARGES

@<TRIPOS>ATOM
      1 C1         -1.0039   -0.2568    0.3257 C.ar      1 MOL        -0.1186
      2 C2         -1.4367   -1.5819    0.2693 C.ar      1 MOL        -0.1032
      3 C3         -2.7266   -1.9051    0.6889 C.ar      1 MOL         0.0583
      4 C4         -3.5799   -0.9097    1.1626 C.ar      1 MOL         0.0688
      5 C5         -3.1487    0.4152    1.2196 C.ar      1 MOL        -0.1072
      6 C6         -1.8584    0.7400    0.8000 C.ar      1 MOL         0.0203
      7 Cl1        -1.3188    2.3730    0.8672 Cl        1 MOL        -0.0737
      8 O1         -4.8561   -1.1828    1.5855 O.3       1 MOL        -0.2026
      9 C7         -5.2389   -2.4982    1.5123 C.ar      1 MOL         0.0821
     10 C8         -4.3856   -3.4936    1.0385 C.ar      1 MOL         0.0842
     11 C9         -4.8168   -4.8184    0.9815 C.ar      1 MOL         0.0273
     12 C10        -6.1071   -5.1433    1.4010 C.ar      1 MOL         0.0216
     13 C11        -6.9616   -4.1465    1.8755 C.ar      1 MOL         0.0207
     14 C12        -6.5287   -2.8214    1.9320 C.ar      1 MOL         0.0286
     15 Cl2        -7.5640   -1.5543    2.5178 Cl        1 MOL        -0.0204
     16 Cl3        -8.5733   -4.5507    2.3994 Cl        1 MOL        -0.0303
     17 Cl4        -6.6463   -6.7985    1.3300 Cl        1 MOL        -0.0293
     18 Cl5        -3.7251   -6.0322    0.3854 Cl        1 MOL        -0.0212
     19 O2         -3.1093   -3.2205    0.6157 O.3       1 MOL        -0.2020
     20 H1          0.0034   -0.0147   -0.0037 H         1 MOL         0.1585
     21 H2         -0.7665   -2.3526   -0.1009 H         1 MOL         0.1642
     22 H3         -3.8198    1.1863    1.5901 H         1 MOL         0.1738
@<TRIPOS>BOND
     1    1    6 ar
     2    1    2 ar
     3    2    3 ar
     4    3   19 1
     5    3    4 ar
     6    4    5 ar
     7    5    6 ar
     8    6    7 1
     9    4    8 1
    10    8    9 1
    11    9   14 ar
    12    9   10 ar
    13   10   11 ar
    14   11   12 ar
    15   12   13 ar
    16   13   14 ar
    17   14   15 1
    18   13   16 1
    19   12   17 1
    20   11   18 1
    21   10   19 1
    22    1   20 1
    23    2   21 1
    24    5   22 1
