@<TRIPOS>MOLECULE
S-propyl N,N-dipropylcarbamothioate
   34    33     0     0     0
SMALL
USER_CHARGES

@<TRIPOS>ATOM
      1 C1          0.5644   -0.4714   -1.7464 C.3       1 MOL        -0.0949
      2 C2          0.3961   -0.2376   -0.2518 C.3       1 MOL        -0.0962
      3 C3         -0.9766   -0.6582    0.2593 C.3       1 MOL         0.0938
      4 N1         -1.1302   -0.4301    1.6971 N.am      1 MOL        -0.4691
      5 C4         -1.6470    0.8388    2.1958 C.3       1 MOL         0.0938
      6 C5         -3.1570    0.8143    2.3280 C.3       1 MOL        -0.0962
      7 C6         -3.7305    2.1253    2.8469 C.3       1 MOL        -0.0949
      8 C7         -0.7825   -1.4294    2.6200 C.2       1 MOL         0.6957
      9 O1         -0.8860   -1.3046    3.8384 O.2       1 MOL        -0.5995
     10 S1         -0.1355   -2.9328    1.9400 S.3       1 MOL        -0.2842
     11 C8          0.1602   -3.8892    3.4433 C.3       1 MOL         0.0066
     12 C9          0.7349   -5.2645    3.1081 C.3       1 MOL        -0.0747
     13 C10         0.9893   -6.0822    4.3661 C.3       1 MOL        -0.0908
     14 H1          1.5586   -0.1600   -2.0825 H         1 MOL         0.0380
     15 H2          0.4473   -1.5353   -1.9767 H         1 MOL         0.0380
     16 H3         -0.1836    0.0810   -2.3234 H         1 MOL         0.0380
     17 H4          0.5387    0.8296   -0.0460 H         1 MOL         0.0448
     18 H5          1.1813   -0.7800    0.2883 H         1 MOL         0.0448
     19 H6         -1.7570   -0.0770   -0.2420 H         1 MOL         0.0570
     20 H7         -1.1647   -1.7191    0.0661 H         1 MOL         0.0570
     21 H8         -1.3318    1.5927    1.4768 H         1 MOL         0.0570
     22 H9         -1.1531    1.0268    3.1471 H         1 MOL         0.0570
     23 H10        -3.5823    0.6135    1.3378 H         1 MOL         0.0448
     24 H11        -3.4716   -0.0027    2.9880 H         1 MOL         0.0448
     25 H12        -4.8207    2.0710    2.9293 H         1 MOL         0.0380
     26 H13        -3.3267    2.3460    3.8402 H         1 MOL         0.0380
     27 H14        -3.4756    2.9610    2.1879 H         1 MOL         0.0380
     28 H15        -0.7861   -3.9952    3.9894 H         1 MOL         0.0791
     29 H16         0.8541   -3.3338    4.0873 H         1 MOL         0.0791
     30 H17         0.0419   -5.8181    2.4630 H         1 MOL         0.0522
     31 H18         1.6793   -5.1577    2.5609 H         1 MOL         0.0522
     32 H19         1.4008   -7.0658    4.1181 H         1 MOL         0.0378
     33 H20         1.7060   -5.5677    5.0139 H         1 MOL         0.0378
     34 H21         0.0640   -6.2290    4.9323 H         1 MOL         0.0378
@<TRIPOS>BOND
     1    1    2 1
     2    2    3 1
     3    3    4 1
     4    4    5 1
     5    5    6 1
     6    6    7 1
     7    4    8 am
     8    8    9 2
     9    8   10 1
    10   10   11 1
    11   11   12 1
    12   12   13 1
    13    1   14 1
    14    1   15 1
    15    1   16 1
    16    2   17 1
    17    2   18 1
    18    3   19 1
    19    3   20 1
    20    5   21 1
    21    5   22 1
    22    6   23 1
    23    6   24 1
    24    7   25 1
    25    7   26 1
    26    7   27 1
    27   11   28 1
    28   11   29 1
    29   12   30 1
    30   12   31 1
    31   13   32 1
    32   13   33 1
    33   13   34 1
