@<TRIPOS>MOLECULE
(2R,5R)-5-isopropenyl-2-methyl-cyclohexanone
   27    27     0     0     0
SMALL
USER_CHARGES

@<TRIPOS>ATOM
      1 C1          0.9642    0.6826   -2.5250 C.3       1 MOL        -0.0844
      2 C2          0.6128   -0.0968   -1.2618 C.3       1 MOL        -0.1619
      3 H1          1.2436   -0.9940   -1.2209 H         1 MOL         0.0683
      4 C3         -0.8623   -0.5069   -1.2705 C.3       1 MOL        -0.0717
      5 C4         -1.2616   -1.2247    0.0196 C.3       1 MOL        -0.0786
      6 C5         -0.9858   -0.3457    1.2464 C.3       1 MOL        -0.0231
      7 H2         -1.6025    0.5586    1.1638 H         1 MOL         0.0594
      8 C6          0.4851    0.0696    1.3061 C.3       1 MOL        -0.1771
      9 C7          0.9081    0.7077   -0.0006 C.2       1 MOL         0.5678
     10 O1          1.5300    1.7689   -0.0156 O.2       1 MOL        -0.5300
     11 C8         -1.3904   -1.0547    2.5015 C.2       1 MOL        -0.1072
     12 C9         -0.8449   -2.2261    2.8627 C.2       1 MOL        -0.2239
     13 C10        -2.4409   -0.3804    3.3338 C.3       1 MOL        -0.0638
     14 H3          0.3534    1.5872   -2.6008 H         1 MOL         0.0438
     15 H4          2.0176    0.9779   -2.5141 H         1 MOL         0.0438
     16 H5          0.7868    0.0718   -3.4152 H         1 MOL         0.0438
     17 H6         -1.4980    0.3794   -1.3957 H         1 MOL         0.0487
     18 H7         -1.0610   -1.1651   -2.1249 H         1 MOL         0.0487
     19 H8         -2.3274   -1.4805   -0.0309 H         1 MOL         0.0479
     20 H9         -0.7109   -2.1715    0.0961 H         1 MOL         0.0479
     21 H10         0.6452    0.7917    2.1157 H         1 MOL         0.0715
     22 H11         1.1421   -0.7889    1.4891 H         1 MOL         0.0715
     23 H12        -1.1456   -2.7311    3.7745 H         1 MOL         0.1135
     24 H13        -0.0853   -2.7069    2.2552 H         1 MOL         0.1135
     25 H14        -3.4386   -0.7100    3.0259 H         1 MOL         0.0438
     26 H15        -2.3038   -0.6282    4.3914 H         1 MOL         0.0438
     27 H16        -2.4060    0.7102    3.2394 H         1 MOL         0.0438
@<TRIPOS>BOND
     1    1    2 1
     2    2    3 1
     3    2    9 1
     4    2    4 1
     5    4    5 1
     6    5    6 1
     7    6    7 1
     8    6    8 1
     9    8    9 1
    10    9   10 2
    11    6   11 1
    12   11   12 2
    13   11   13 1
    14    1   14 1
    15    1   15 1
    16    1   16 1
    17    4   17 1
    18    4   18 1
    19    5   19 1
    20    5   20 1
    21    8   21 1
    22    8   22 1
    23   12   23 1
    24   12   24 1
    25   13   25 1
    26   13   26 1
    27   13   27 1
