@<TRIPOS>MOLECULE
methyl 2,2-dimethylpropanoate
   20    19     0     0     0
SMALL
USER_CHARGES

@<TRIPOS>ATOM
      1 C1          0.7043   -0.4120    0.7314 C.3       1 MOL        -0.0885
      2 C2          1.9238   -1.0345    0.0387 C.3       1 MOL        -0.0916
      3 C3          2.5939    0.0304   -0.8446 C.3       1 MOL        -0.0885
      4 C4          1.4943   -2.2146   -0.8431 C.3       1 MOL        -0.0885
      5 C5          2.9196   -1.5216    1.0965 C.2       1 MOL         0.6335
      6 O1          4.0726   -1.1204    1.1996 O.2       1 MOL        -0.5390
      7 O2          2.3401   -2.4606    1.9028 O.3       1 MOL        -0.4383
      8 C6          3.1760   -2.9928    2.9354 C.3       1 MOL         0.1244
      9 H1          0.1992   -1.1440    1.3720 H         1 MOL         0.0474
     10 H2          0.9948    0.4406    1.3555 H         1 MOL         0.0474
     11 H3         -0.0335   -0.0531    0.0050 H         1 MOL         0.0474
     12 H4          3.4727   -0.3756   -1.3590 H         1 MOL         0.0474
     13 H5          2.9220    0.8910   -0.2509 H         1 MOL         0.0474
     14 H6          1.9058    0.3982   -1.6145 H         1 MOL         0.0474
     15 H7          2.3512   -2.6748   -1.3481 H         1 MOL         0.0474
     16 H8          1.0028   -2.9943   -0.2506 H         1 MOL         0.0474
     17 H9          0.7950   -1.8897   -1.6221 H         1 MOL         0.0474
     18 H10         2.6062   -3.7239    3.5045 H         1 MOL         0.0500
     19 H11         3.5053   -2.1764    3.5745 H         1 MOL         0.0500
     20 H12         4.0336   -3.4701    2.4666 H         1 MOL         0.0500
@<TRIPOS>BOND
     1    1    2 1
     2    2    3 1
     3    2    4 1
     4    2    5 1
     5    5    6 2
     6    5    7 1
     7    7    8 1
     8    1    9 1
     9    1   10 1
    10    1   11 1
    11    3   12 1
    12    3   13 1
    13    3   14 1
    14    4   15 1
    15    4   16 1
    16    4   17 1
    17    8   18 1
    18    8   19 1
    19    8   20 1
