@<TRIPOS>MOLECULE
2-acetoxyethyl acetate
   20    19     0     0     0
SMALL
USER_CHARGES

@<TRIPOS>ATOM
      1 C1         -0.1306    1.1111   -0.1834 C.3       1 MOL        -0.1491
      2 C2         -0.7126    1.3208   -1.5485 C.2       1 MOL         0.6370
      3 O1         -0.1670    1.9646   -2.4344 O.2       1 MOL        -0.5347
      4 O2         -1.9187    0.6904   -1.6316 O.3       1 MOL        -0.4505
      5 C3         -2.5898    0.8104   -2.8899 C.3       1 MOL         0.1370
      6 C4         -3.9023    0.0599   -2.8144 C.3       1 MOL         0.1370
      7 O3         -3.6412   -1.3094   -2.5310 O.3       1 MOL        -0.4505
      8 C5         -4.7406   -2.1162   -2.4327 C.2       1 MOL         0.6370
      9 O4         -5.9055   -1.7662   -2.5654 O.2       1 MOL        -0.5347
     10 C6         -4.3155   -3.5218   -2.1337 C.3       1 MOL        -0.1490
     11 H1         -0.4556    1.9119    0.4853 H         1 MOL         0.0778
     12 H2          0.9601    1.0798   -0.2460 H         1 MOL         0.0778
     13 H3         -0.4833    0.1567    0.2184 H         1 MOL         0.0778
     14 H4         -2.7474    1.8733   -3.0823 H         1 MOL         0.0635
     15 H5         -1.9414    0.3825   -3.6563 H         1 MOL         0.0635
     16 H6         -4.4470    0.1140   -3.7622 H         1 MOL         0.0635
     17 H7         -4.5225    0.4644   -2.0092 H         1 MOL         0.0635
     18 H8         -4.2652   -3.6721   -1.0525 H         1 MOL         0.0778
     19 H9         -3.3458   -3.7224   -2.5963 H         1 MOL         0.0778
     20 H10        -5.0494   -4.2187   -2.5488 H         1 MOL         0.0778
@<TRIPOS>BOND
     1    1    2 1
     2    2    3 2
     3    2    4 1
     4    4    5 1
     5    5    6 1
     6    6    7 1
     7    7    8 1
     8    8    9 2
     9    8   10 1
    10    1   11 1
    11    1   12 1
    12    1   13 1
    13    5   14 1
    14    5   15 1
    15    6   16 1
    16    6   17 1
    17   10   18 1
    18   10   19 1
    19   10   20 1
