@<TRIPOS>MOLECULE
5-amino-4-chloro-2-phenyl-pyridazin-3-one
   23    24     0     0     0
SMALL
USER_CHARGES

@<TRIPOS>ATOM
      1 C1          6.0296    0.7035   -6.7360 C.ar      1 MOL        -0.1312
      2 C2          6.3138   -0.1386   -5.6609 C.ar      1 MOL        -0.1254
      3 C3          5.3926   -0.2799   -4.6232 C.ar      1 MOL        -0.1187
      4 C4          4.1871    0.4209   -4.6605 C.ar      1 MOL         0.0565
      5 C5          3.9029    1.2629   -5.7357 C.ar      1 MOL        -0.1187
      6 C6          4.8242    1.4042   -6.7734 C.ar      1 MOL        -0.1254
      7 N1          3.2337    0.2748   -3.5870 N.am      1 MOL        -0.1185
      8 C7          1.8445    0.3726   -3.7330 C.2       1 MOL         0.7078
      9 O1          1.2405    0.5133   -4.7962 O.2       1 MOL        -0.5938
     10 C8          1.0405    0.2704   -2.4781 C.2       1 MOL        -0.2122
     11 C9          1.6026    0.0360   -1.2907 C.2       1 MOL         0.1390
     12 C10         3.0630   -0.1058   -1.3399 C.2       1 MOL         0.3016
     13 N2          3.8182    0.0039   -2.3776 N.2       1 MOL        -0.3935
     14 N3          1.0057   -0.0887   -0.0755 N.pl3     1 MOL        -0.8481
     15 Cl1        -0.6732    0.4609   -2.6326 Cl        1 MOL        -0.0626
     16 H1          6.7469    0.8126   -7.5443 H         1 MOL         0.1343
     17 H2          7.2522   -0.6849   -5.6326 H         1 MOL         0.1356
     18 H3          5.6248   -0.9390   -3.7903 H         1 MOL         0.1557
     19 H4          2.9666    1.8139   -5.7757 H         1 MOL         0.1557
     20 H5          4.6022    2.0592   -7.6107 H         1 MOL         0.1356
     21 H6          3.5535   -0.3250   -0.3765 H         1 MOL         0.0512
     22 H7          1.5759   -0.2656    0.7255 H         1 MOL         0.4375
     23 H8          0.0126   -0.0002   -0.0150 H         1 MOL         0.4375
@<TRIPOS>BOND
     1    1    6 ar
     2    1    2 ar
     3    2    3 ar
     4    3    4 ar
     5    4    5 ar
     6    5    6 ar
     7    4    7 1
     8    7   13 1
     9    7    8 am
    10    8    9 2
    11    8   10 1
    12   10   11 2
    13   11   12 1
    14   12   13 2
    15   11   14 1
    16   10   15 1
    17    1   16 1
    18    2   17 1
    19    3   18 1
    20    5   19 1
    21    6   20 1
    22   12   21 1
    23   14   22 1
    24   14   23 1
