@<TRIPOS>MOLECULE
1,4-dichlorobutane
   14    13     0     0     0
SMALL
USER_CHARGES

@<TRIPOS>ATOM
      1 C1          0.5769    0.5054   -0.0200 C.3       1 MOL        -0.0935
      2 C2         -0.6108   -0.4634    0.0323 C.3       1 MOL        -0.0934
      3 C3         -0.7919   -1.1165    1.3996 C.3       1 MOL         0.0387
      4 Cl1        -2.1761   -2.2332    1.4275 Cl        1 MOL        -0.1939
      5 C4          0.7581    1.1587   -1.3873 C.3       1 MOL         0.0387
      6 Cl2         2.1423    2.2753   -1.4151 Cl        1 MOL        -0.1939
      7 H1          1.5032   -0.0071    0.2641 H         1 MOL         0.0578
      8 H2          0.4173    1.3008    0.7186 H         1 MOL         0.0578
      9 H3         -0.5050   -1.2420   -0.7319 H         1 MOL         0.0578
     10 H4         -1.5284    0.0889   -0.2051 H         1 MOL         0.0578
     11 H5          0.1007   -1.6782    1.6915 H         1 MOL         0.0666
     12 H6         -0.9782   -0.3516    2.1593 H         1 MOL         0.0666
     13 H7          0.9148    0.4076   -2.1674 H         1 MOL         0.0666
     14 H8         -0.1318    1.7400   -1.6465 H         1 MOL         0.0666
@<TRIPOS>BOND
     1    1    2 1
     2    2    3 1
     3    3    4 1
     4    1    5 1
     5    5    6 1
     6    1    7 1
     7    1    8 1
     8    2    9 1
     9    2   10 1
    10    3   11 1
    11    3   12 1
    12    5   13 1
    13    5   14 1
