@<TRIPOS>MOLECULE
2-methylpentane
   20    19     0     0     0
SMALL
USER_CHARGES

@<TRIPOS>ATOM
      1 C1          0.7499   -0.2574   -0.6070 C.3       1 MOL        -0.0923
      2 C2          0.8430    0.4612   -1.9447 C.3       1 MOL        -0.0808
      3 C3          0.8300    1.9809   -1.7632 C.3       1 MOL        -0.0745
      4 C4          0.9223    2.7580   -3.0895 C.3       1 MOL        -0.0677
      5 C5          2.2230    2.3984   -3.8121 C.3       1 MOL        -0.0901
      6 C6          0.8472    4.2720   -2.8863 C.3       1 MOL        -0.0901
      7 H1          0.7596   -1.3436   -0.7431 H         1 MOL         0.0324
      8 H2          1.5868    0.0156    0.0436 H         1 MOL         0.0324
      9 H3         -0.1798    0.0120   -0.0961 H         1 MOL         0.0324
     10 H4          1.7636    0.1542   -2.4540 H         1 MOL         0.0389
     11 H5          0.0013    0.1441   -2.5694 H         1 MOL         0.0389
     12 H6         -0.0790    2.2753   -1.2230 H         1 MOL         0.0388
     13 H7          1.6784    2.2658   -1.1276 H         1 MOL         0.0388
     14 H8          0.0863    2.4562   -3.7332 H         1 MOL         0.0446
     15 H9          2.3058    2.9426   -4.7589 H         1 MOL         0.0330
     16 H10         2.2728    1.3263   -4.0312 H         1 MOL         0.0330
     17 H11         3.0934    2.6605   -3.2012 H         1 MOL         0.0330
     18 H12         0.9146    4.8046   -3.8410 H         1 MOL         0.0330
     19 H13        -0.0978    4.5531   -2.4089 H         1 MOL         0.0330
     20 H14         1.6540    4.6279   -2.2386 H         1 MOL         0.0330
@<TRIPOS>BOND
     1    1    2 1
     2    2    3 1
     3    3    4 1
     4    4    5 1
     5    4    6 1
     6    1    7 1
     7    1    8 1
     8    1    9 1
     9    2   10 1
    10    2   11 1
    11    3   12 1
    12    3   13 1
    13    4   14 1
    14    5   15 1
    15    5   16 1
    16    5   17 1
    17    6   18 1
    18    6   19 1
    19    6   20 1
