@<TRIPOS>MOLECULE
diethoxy-thioxo-[(3,5,6-trichloro-2-pyridyl)oxy]-$l^{5}-phosphane
   29    29     0     0     0
SMALL
USER_CHARGES

@<TRIPOS>ATOM
      1 C1          2.6943   -0.1504   -0.3077 C.3       1 MOL        -0.1166
      2 C2          1.7988   -1.1310   -1.0343 C.3       1 MOL         0.1508
      3 O1          0.8703   -0.4092   -1.8262 O.3       1 MOL        -0.5180
      4 P1         -0.2256   -1.2121   -2.7243 P.3       1 MOL         1.2372
      5 S1         -1.4493   -2.3693   -1.7408 S.2       1 MOL        -0.6041
      6 O2          0.7376   -1.9141   -3.8319 O.3       1 MOL        -0.5180
      7 C3          0.1882   -2.3658   -5.0580 C.3       1 MOL         0.1508
      8 C4          1.2902   -2.9741   -5.9003 C.3       1 MOL        -0.1166
      9 O3         -0.8843    0.0037   -3.5707 O.3       1 MOL        -0.5563
     10 C5         -1.5328    1.0946   -3.0580 C.ar      1 MOL         0.6536
     11 C6         -2.0479    2.0601   -3.9078 C.ar      1 MOL        -0.0821
     12 C7         -2.6959    3.1502   -3.3376 C.ar      1 MOL        -0.0675
     13 C8         -2.8075    3.2400   -1.9545 C.ar      1 MOL        -0.0927
     14 C9         -2.2586    2.2215   -1.1921 C.ar      1 MOL         0.5126
     15 N1         -1.6219    1.1473   -1.7100 N.ar      1 MOL        -0.6492
     16 Cl1        -2.3227    2.1973    0.5290 Cl        1 MOL        -0.1022
     17 Cl2        -3.6142    4.5967   -1.2670 Cl        1 MOL        -0.0277
     18 Cl3        -1.9057    1.9439   -5.6176 Cl        1 MOL        -0.0305
     19 H1          3.4246   -0.6756    0.3142 H         1 MOL         0.0558
     20 H2          3.2294    0.4853   -1.0208 H         1 MOL         0.0558
     21 H3          2.1015    0.5147    0.3290 H         1 MOL         0.0558
     22 H4          1.2471   -1.7491   -0.3198 H         1 MOL         0.0657
     23 H5          2.3900   -1.7796   -1.6876 H         1 MOL         0.0657
     24 H6         -0.5865   -3.1100   -4.8467 H         1 MOL         0.0657
     25 H7         -0.2658   -1.5159   -5.5777 H         1 MOL         0.0657
     26 H8          0.8993   -3.3338   -6.8561 H         1 MOL         0.0558
     27 H9          2.0773   -2.2382   -6.0946 H         1 MOL         0.0558
     28 H10         1.7602   -3.8111   -5.3734 H         1 MOL         0.0558
     29 H11        -3.1136    3.9284   -3.9725 H         1 MOL         0.1788
@<TRIPOS>BOND
     1    1    2 1
     2    2    3 1
     3    3    4 1
     4    4    5 2
     5    4    6 1
     6    6    7 1
     7    7    8 1
     8    4    9 1
     9    9   10 1
    10   10   15 ar
    11   10   11 ar
    12   11   12 ar
    13   12   13 ar
    14   13   14 ar
    15   14   15 ar
    16   14   16 1
    17   13   17 1
    18   11   18 1
    19    1   19 1
    20    1   20 1
    21    1   21 1
    22    2   22 1
    23    2   23 1
    24    7   24 1
    25    7   25 1
    26    8   26 1
    27    8   27 1
    28    8   28 1
    29   12   29 1
