@<TRIPOS>MOLECULE
4-methylsulfonyl-2,6-dinitro-N,N-dipropyl-aniline
   42    42     0     0     0
SMALL
USER_CHARGES

@<TRIPOS>ATOM
      1 C1          3.4481    3.6057   -0.0289 C.3       1 MOL        -0.0905
      2 C2          3.6344    2.8445   -1.3338 C.3       1 MOL        -0.1092
      3 C3          2.6189    1.7221   -1.5111 C.3       1 MOL         0.2388
      4 N1          2.8015    1.0088   -2.7448 N.pl3     1 MOL        -0.7916
      5 C4          2.7100    1.7478   -4.0090 C.3       1 MOL         0.2388
      6 C5          1.3463    2.3797   -4.1792 C.3       1 MOL        -0.1092
      7 C6          1.2058    3.1582   -5.4796 C.3       1 MOL        -0.0905
      8 C7          3.0768   -0.3694   -2.7666 C.ar      1 MOL         0.3287
      9 C8          4.3975   -0.8174   -2.7383 C.ar      1 MOL        -0.1932
     10 C9          4.6706   -2.1851   -2.7596 C.ar      1 MOL         0.0404
     11 C10         3.6231   -3.1048   -2.8092 C.ar      1 MOL        -0.3631
     12 C11         2.3024   -2.6567   -2.8376 C.ar      1 MOL         0.0404
     13 C12         2.0293   -1.2890   -2.8163 C.ar      1 MOL        -0.1932
     14 N2          0.6715   -0.8618   -2.8468 N.pl3     1 MOL         0.3183
     15 O1          0.1271   -0.6576   -3.9567 O.2       1 MOL        -0.1802
     16 O2          0.0634   -0.7033   -1.7628 O.3       1 MOL        -0.1802
     17 S1          3.9655   -4.8168   -2.8332 S.o2      1 MOL         1.3950
     18 O3          5.2706   -5.0216   -2.2211 O.2       1 MOL        -0.6421
     19 O4          2.8069   -5.5369   -2.3229 O.2       1 MOL        -0.6421
     20 C13         4.1035   -5.2153   -4.5610 C.3       1 MOL        -0.3744
     21 N3          5.4867    0.0974   -2.6863 N.pl3     1 MOL         0.3183
     22 O5          5.9176    0.4615   -1.5673 O.2       1 MOL        -0.1802
     23 O6          5.9811    0.5107   -3.7611 O.3       1 MOL        -0.1802
     24 H1          4.1909    4.4038    0.0690 H         1 MOL         0.0380
     25 H2          2.4540    4.0632    0.0016 H         1 MOL         0.0380
     26 H3          3.5385    2.9421    0.8366 H         1 MOL         0.0380
     27 H4          4.6428    2.4150   -1.3478 H         1 MOL         0.0536
     28 H5          3.5692    3.5471   -2.1730 H         1 MOL         0.0536
     29 H6          2.7219    0.9926   -0.7016 H         1 MOL         0.0535
     30 H7          1.5943    2.1068   -1.4947 H         1 MOL         0.0535
     31 H8          2.9059    1.0157   -4.7869 H         1 MOL         0.0535
     32 H9          3.5113    2.4801   -3.9925 H         1 MOL         0.0535
     33 H10         0.6013    1.5756   -4.1701 H         1 MOL         0.0536
     34 H11         1.1186    3.0427   -3.3361 H         1 MOL         0.0536
     35 H12         0.2078    3.5996   -5.5665 H         1 MOL         0.0380
     36 H13         1.9391    3.9703   -5.5134 H         1 MOL         0.0380
     37 H14         1.3759    2.5162   -6.3494 H         1 MOL         0.0380
     38 H15         5.6995   -2.5386   -2.7382 H         1 MOL         0.1861
     39 H16         1.4883   -3.3774   -2.8760 H         1 MOL         0.1861
     40 H17         4.3177   -6.2764   -4.6328 H         1 MOL         0.1242
     41 H18         3.1554   -4.9692   -5.0271 H         1 MOL         0.1242
     42 H19         4.9129   -4.6184   -4.9676 H         1 MOL         0.1242
@<TRIPOS>BOND
     1    1    2 1
     2    2    3 1
     3    3    4 1
     4    4    5 1
     5    5    6 1
     6    6    7 1
     7    4    8 1
     8    8   13 ar
     9    8    9 ar
    10    9   10 ar
    11   10   11 ar
    12   11   12 ar
    13   12   13 ar
    14   13   14 1
    15   14   15 2
    16   14   16 1
    17   11   17 1
    18   17   18 2
    19   17   19 2
    20   17   20 1
    21    9   21 1
    22   21   22 2
    23   21   23 1
    24    1   24 1
    25    1   25 1
    26    1   26 1
    27    2   27 1
    28    2   28 1
    29    3   29 1
    30    3   30 1
    31    5   31 1
    32    5   32 1
    33    6   33 1
    34    6   34 1
    35    7   35 1
    36    7   36 1
    37    7   37 1
    38   10   38 1
    39   12   39 1
    40   20   40 1
    41   20   41 1
    42   20   42 1
