@<TRIPOS>MOLECULE
2-propoxyethanol
   19    18     0     0     0
SMALL
USER_CHARGES

@<TRIPOS>ATOM
      1 C1         -0.0023   -0.6657    0.8688 C.3       1 MOL        -0.0924
      2 C2          1.2444   -0.4434    1.7060 C.3       1 MOL        -0.0816
      3 C3          1.2749   -1.3494    2.9273 C.3       1 MOL         0.1287
      4 O1          2.4629   -1.0899    3.6622 O.3       1 MOL        -0.4184
      5 C4          2.5499   -1.9092    4.8204 C.3       1 MOL         0.0905
      6 C5          3.8344   -1.5872    5.5603 C.3       1 MOL         0.1250
      7 O2          4.9401   -1.8428    4.7028 O.3       1 MOL        -0.5934
      8 H1         -0.0099   -0.0072   -0.0057 H         1 MOL         0.0377
      9 H2         -0.0425   -1.7005    0.5148 H         1 MOL         0.0377
     10 H3         -0.9071   -0.4713    1.4534 H         1 MOL         0.0377
     11 H4          1.2973    0.6048    2.0240 H         1 MOL         0.0486
     12 H5          2.1387   -0.6182    1.0958 H         1 MOL         0.0486
     13 H6          0.4147   -1.1588    3.5770 H         1 MOL         0.0280
     14 H7          1.2712   -2.4035    2.6320 H         1 MOL         0.0280
     15 H8          1.6743   -1.7101    5.4465 H         1 MOL         0.0302
     16 H9          2.5444   -2.9561    4.5021 H         1 MOL         0.0302
     17 H10         3.9429   -2.2124    6.4521 H         1 MOL         0.0593
     18 H11         3.8586   -0.5313    5.8452 H         1 MOL         0.0593
     19 H12         5.7404   -1.6266    5.2076 H         1 MOL         0.3963
@<TRIPOS>BOND
     1    1    2 1
     2    2    3 1
     3    3    4 1
     4    4    5 1
     5    5    6 1
     6    6    7 1
     7    1    8 1
     8    1    9 1
     9    1   10 1
    10    2   11 1
    11    2   12 1
    12    3   13 1
    13    3   14 1
    14    5   15 1
    15    5   16 1
    16    6   17 1
    17    6   18 1
    18    7   19 1
