@<TRIPOS>MOLECULE
methanamine
    7     6     0     0     0
SMALL
USER_CHARGES

@<TRIPOS>ATOM
      1 C1         -0.6179   -0.7479    0.5044 C.3       1 MOL         0.1531
      2 N1         -1.8495   -0.9393   -0.2112 N.3       1 MOL        -0.9288
      3 H1         -0.2695   -1.6996    0.9140 H         1 MOL         0.0252
      4 H2         -0.7645   -0.0432    1.3274 H         1 MOL         0.0252
      5 H3          0.1501   -0.3505   -0.1647 H         1 MOL         0.0252
      6 H4         -2.7184   -0.9540    0.2997 H         1 MOL         0.3501
      7 H5         -1.8188   -1.2562   -1.1677 H         1 MOL         0.3501
@<TRIPOS>BOND
     1    1    2 1
     2    1    3 1
     3    1    4 1
     4    1    5 1
     5    2    6 1
     6    2    7 1
