@<TRIPOS>MOLECULE
trimethoxymethylbenzene
   27    27     0     0     0
SMALL
USER_CHARGES

@<TRIPOS>ATOM
      1 C1          0.7888    0.7965   -0.3489 C.3       1 MOL         0.1230
      2 O1          0.7053    1.8843    0.5666 O.3       1 MOL        -0.4353
      3 C2         -0.5845    2.5417    0.6462 C.3       1 MOL         0.5621
      4 C3         -0.9242    3.0962   -0.7437 C.ar      1 MOL        -0.1340
      5 C4         -0.0829    4.0318   -1.3459 C.ar      1 MOL        -0.0938
      6 C5         -0.3915    4.5361   -2.6092 C.ar      1 MOL        -0.1422
      7 C6         -1.5415    4.1049   -3.2704 C.ar      1 MOL        -0.1151
      8 C7         -2.3828    3.1693   -2.6683 C.ar      1 MOL        -0.1422
      9 C8         -2.0742    2.6650   -1.4049 C.ar      1 MOL        -0.0938
     10 O2         -1.6075    1.6330    1.1030 O.3       1 MOL        -0.4353
     11 C9         -1.3674    1.0823    2.3937 C.3       1 MOL         0.1230
     12 O3         -0.4333    3.6623    1.5538 O.3       1 MOL        -0.4353
     13 C10        -1.6034    4.4453    1.7689 C.3       1 MOL         0.1230
     14 H1          1.7980    0.3780   -0.3276 H         1 MOL         0.0429
     15 H2          0.5495    1.1474   -1.3559 H         1 MOL         0.0429
     16 H3          0.0715    0.0272   -0.0532 H         1 MOL         0.0429
     17 H4          0.8149    4.3737   -0.8376 H         1 MOL         0.1531
     18 H5          0.2637    5.2645   -3.0781 H         1 MOL         0.1353
     19 H6         -1.7820    4.4973   -4.2542 H         1 MOL         0.1322
     20 H7         -3.2785    2.8339   -3.1828 H         1 MOL         0.1353
     21 H8         -2.7356    1.9361   -0.9441 H         1 MOL         0.1531
     22 H9         -2.1868    0.4121    2.6541 H         1 MOL         0.0429
     23 H10        -1.2922    1.8924    3.1195 H         1 MOL         0.0429
     24 H11        -0.4310    0.5251    2.3651 H         1 MOL         0.0429
     25 H12        -1.3699    5.2522    2.4635 H         1 MOL         0.0429
     26 H13        -2.3895    3.8083    2.1746 H         1 MOL         0.0429
     27 H14        -1.9226    4.8620    0.8138 H         1 MOL         0.0429
@<TRIPOS>BOND
     1    1    2 1
     2    2    3 1
     3    3    4 1
     4    4    9 ar
     5    4    5 ar
     6    5    6 ar
     7    6    7 ar
     8    7    8 ar
     9    8    9 ar
    10    3   10 1
    11   10   11 1
    12    3   12 1
    13   12   13 1
    14    1   14 1
    15    1   15 1
    16    1   16 1
    17    5   17 1
    18    6   18 1
    19    7   19 1
    20    8   20 1
    21    9   21 1
    22   11   22 1
    23   11   23 1
    24   11   24 1
    25   13   25 1
    26   13   26 1
    27   13   27 1
