@<TRIPOS>MOLECULE
2-methylpropan-1-ol
   15    14     0     0     0
SMALL
USER_CHARGES

@<TRIPOS>ATOM
      1 C1          0.9983   -0.3578   -0.2742 C.3       1 MOL        -0.0901
      2 C2          1.8182    0.7470   -0.9439 C.3       1 MOL        -0.0705
      3 C3          1.1578    1.1798   -2.2511 C.3       1 MOL        -0.0901
      4 C4          1.9991    1.9493   -0.0132 C.3       1 MOL         0.1343
      5 O1          2.6754    1.5475    1.1709 O.3       1 MOL        -0.6011
      6 H1          1.4668   -0.6730    0.6644 H         1 MOL         0.0365
      7 H2          0.9144   -1.2373   -0.9218 H         1 MOL         0.0365
      8 H3         -0.0135   -0.0122   -0.0385 H         1 MOL         0.0365
      9 H4          2.8075    0.3294   -1.1709 H         1 MOL         0.0597
     10 H5          1.7384    1.9708   -2.7374 H         1 MOL         0.0365
     11 H6          0.1511    1.5698   -2.0675 H         1 MOL         0.0365
     12 H7          1.0744    0.3418   -2.9516 H         1 MOL         0.0365
     13 H8          2.6000    2.7249   -0.4995 H         1 MOL         0.0204
     14 H9          1.0323    2.3812    0.2672 H         1 MOL         0.0204
     15 H10         2.7651    2.3400    1.7245 H         1 MOL         0.3980
@<TRIPOS>BOND
     1    1    2 1
     2    2    3 1
     3    2    4 1
     4    4    5 1
     5    1    6 1
     6    1    7 1
     7    1    8 1
     8    2    9 1
     9    3   10 1
    10    3   11 1
    11    3   12 1
    12    4   13 1
    13    4   14 1
    14    5   15 1
