@<TRIPOS>MOLECULE
(2S,5R)-2-isopropyl-5-methyl-cyclohexanone
   29    29     0     0     0
SMALL
USER_CHARGES

@<TRIPOS>ATOM
      1 C1         -1.5684    2.2506   -0.1607 C.3       1 MOL        -0.0904
      2 C2         -1.3300    1.2032   -1.2462 C.3       1 MOL        -0.0597
      3 H1         -1.2557    1.7236   -2.2108 H         1 MOL         0.0538
      4 C3         -2.5093    0.2238   -1.3229 C.3       1 MOL        -0.0820
      5 C4         -2.2816   -0.8278   -2.4091 C.3       1 MOL        -0.0724
      6 C5         -0.9885   -1.6141   -2.1782 C.3       1 MOL        -0.1559
      7 H2         -1.0628   -2.1767   -1.2391 H         1 MOL         0.0702
      8 C6          0.1745   -0.6413   -2.0179 C.2       1 MOL         0.5716
      9 O1          1.2452   -0.7776   -2.6081 O.2       1 MOL        -0.5327
     10 C7         -0.0176    0.4586   -0.9953 C.3       1 MOL        -0.1789
     11 C8         -0.7470   -2.6022   -3.3148 C.3       1 MOL        -0.0582
     12 C9          0.2198   -3.7010   -2.8770 C.3       1 MOL        -0.0934
     13 C10        -2.0660   -3.2080   -3.7910 C.3       1 MOL        -0.0934
     14 H3         -1.6492    1.7750    0.8212 H         1 MOL         0.0374
     15 H4         -0.7421    2.9671   -0.1296 H         1 MOL         0.0374
     16 H5         -2.4942    2.8007   -0.3542 H         1 MOL         0.0374
     17 H6         -2.6522   -0.2737   -0.3552 H         1 MOL         0.0450
     18 H7         -3.4345    0.7704   -1.5408 H         1 MOL         0.0450
     19 H8         -3.1361   -1.5147   -2.4298 H         1 MOL         0.0503
     20 H9         -2.2488   -0.3287   -3.3864 H         1 MOL         0.0503
     21 H10         0.0000    0.0002    0.0002 H         1 MOL         0.0678
     22 H11         0.8282    1.1524   -1.0612 H         1 MOL         0.0678
     23 H12        -0.2942   -2.0605   -4.1548 H         1 MOL         0.0639
     24 H13         0.4010   -4.4173   -3.6858 H         1 MOL         0.0365
     25 H14        -0.1815   -4.2524   -2.0202 H         1 MOL         0.0365
     26 H15         1.1840   -3.2756   -2.5793 H         1 MOL         0.0365
     27 H16        -1.9052   -3.9199   -4.6079 H         1 MOL         0.0365
     28 H17        -2.7458   -2.4282   -4.1503 H         1 MOL         0.0365
     29 H18        -2.5670   -3.7380   -2.9740 H         1 MOL         0.0365
@<TRIPOS>BOND
     1    1    2 1
     2    2    3 1
     3    2   10 1
     4    2    4 1
     5    4    5 1
     6    5    6 1
     7    6    7 1
     8    6    8 1
     9    8    9 2
    10    8   10 1
    11    6   11 1
    12   11   12 1
    13   11   13 1
    14    1   14 1
    15    1   15 1
    16    1   16 1
    17    4   17 1
    18    4   18 1
    19    5   19 1
    20    5   20 1
    21   10   21 1
    22   10   22 1
    23   11   23 1
    24   12   24 1
    25   12   25 1
    26   12   26 1
    27   13   27 1
    28   13   28 1
    29   13   29 1
