@<TRIPOS>MOLECULE
[(1R)-1,2,2-trifluoroethoxy]benzene
   19    19     0     0     0
SMALL
USER_CHARGES

@<TRIPOS>ATOM
      1 C1          1.8851   -1.0363   -0.1124 C.ar      1 MOL        -0.1487
      2 C2          2.9210   -1.6309    0.6081 C.ar      1 MOL        -0.1027
      3 C3          2.8783   -1.6520    2.0022 C.ar      1 MOL        -0.1642
      4 C4          1.7997   -1.0786    2.6757 C.ar      1 MOL         0.1103
      5 C5          0.7638   -0.4841    1.9551 C.ar      1 MOL        -0.1642
      6 C6          0.8066   -0.4630    0.5610 C.ar      1 MOL        -0.1027
      7 O1          1.7593   -1.0981    4.0359 O.3       1 MOL        -0.3489
      8 C7          3.0018   -1.0827    4.7396 C.3       1 MOL         0.3190
      9 H1          3.7798   -0.5504    4.1804 H         1 MOL         0.0843
     10 C8          2.7983   -0.4229    6.0836 C.3       1 MOL         0.3882
     11 F1          3.9704   -0.4015    6.7627 F         1 MOL        -0.2266
     12 F2          1.9275   -1.1545    6.8232 F         1 MOL        -0.2266
     13 F3          3.3981   -2.3663    4.9525 F         1 MOL        -0.2179
     14 H2          1.9184   -1.0206   -1.1979 H         1 MOL         0.1390
     15 H3          3.7605   -2.0773    0.0830 H         1 MOL         0.1362
     16 H4          3.6889   -2.1149    2.5584 H         1 MOL         0.1493
     17 H5         -0.0785   -0.0345    2.4737 H         1 MOL         0.1493
     18 H6         -0.0001    0.0001    0.0001 H         1 MOL         0.1362
     19 H7          2.4101    0.5959    5.9991 H         1 MOL         0.0908
@<TRIPOS>BOND
     1    1    6 ar
     2    1    2 ar
     3    2    3 ar
     4    3    4 ar
     5    4    5 ar
     6    5    6 ar
     7    4    7 1
     8    7    8 1
     9    8    9 1
    10    8   10 1
    11   10   11 1
    12   10   12 1
    13    8   13 1
    14    1   14 1
    15    2   15 1
    16    3   16 1
    17    5   17 1
    18    6   18 1
    19   10   19 1
