@<TRIPOS>MOLECULE
2-methoxy-4-propyl-phenol
   26    26     0     0     0
SMALL
USER_CHARGES

@<TRIPOS>ATOM
      1 C1          1.3087   -2.2305   -3.7220 C.3       1 MOL        -0.0963
      2 C2          1.2606   -2.2534   -2.2025 C.3       1 MOL        -0.0757
      3 C3          1.9313   -1.0156   -1.6029 C.3       1 MOL        -0.0327
      4 C4          1.8851   -1.0363   -0.1124 C.ar      1 MOL        -0.1011
      5 C5          2.9210   -1.6309    0.6081 C.ar      1 MOL        -0.0951
      6 C6          2.8783   -1.6520    2.0022 C.ar      1 MOL        -0.2068
      7 C7          1.7997   -1.0786    2.6757 C.ar      1 MOL         0.1100
      8 C8          0.7638   -0.4841    1.9551 C.ar      1 MOL         0.0647
      9 C9          0.8066   -0.4630    0.5610 C.ar      1 MOL        -0.1086
     10 O1         -0.2945    0.0799    2.6014 O.3       1 MOL        -0.3286
     11 C10        -1.3110    0.6665    1.7910 C.3       1 MOL         0.1174
     12 O2          1.7689   -1.1059    4.0372 O.3       1 MOL        -0.4828
     13 H1          0.8272   -3.1189   -4.1430 H         1 MOL         0.0351
     14 H2          0.8022   -1.3442   -4.1172 H         1 MOL         0.0351
     15 H3          2.3469   -2.2110   -4.0682 H         1 MOL         0.0351
     16 H4          1.7555   -3.1632   -1.8414 H         1 MOL         0.0421
     17 H5          0.2148   -2.3113   -1.8773 H         1 MOL         0.0421
     18 H6          1.4391   -0.1083   -1.9764 H         1 MOL         0.0466
     19 H7          2.9741   -0.9574   -1.9409 H         1 MOL         0.0466
     20 H8          3.7652   -2.0807    0.0919 H         1 MOL         0.1363
     21 H9          3.6886   -2.1162    2.5579 H         1 MOL         0.1342
     22 H10        -0.0022    0.0002    0.0015 H         1 MOL         0.1465
     23 H11        -2.0875    1.0750    2.4366 H         1 MOL         0.0397
     24 H12        -1.7233   -0.0963    1.1314 H         1 MOL         0.0397
     25 H13        -0.8635    1.4645    1.2001 H         1 MOL         0.0397
     26 H14         0.9645   -0.6726    4.3631 H         1 MOL         0.4170
@<TRIPOS>BOND
     1    1    2 1
     2    2    3 1
     3    3    4 1
     4    4    9 ar
     5    4    5 ar
     6    5    6 ar
     7    6    7 ar
     8    7    8 ar
     9    8    9 ar
    10    8   10 1
    11   10   11 1
    12    7   12 1
    13    1   13 1
    14    1   14 1
    15    1   15 1
    16    2   16 1
    17    2   17 1
    18    3   18 1
    19    3   19 1
    20    5   20 1
    21    6   21 1
    22    9   22 1
    23   11   23 1
    24   11   24 1
    25   11   25 1
    26   12   26 1
