@<TRIPOS>MOLECULE
dimethoxy-(4-nitrophenoxy)-thioxo-$l^{5}-phosphane
   26    26     0     0     0
SMALL
USER_CHARGES

@<TRIPOS>ATOM
      1 C1         -0.0167    0.3795   -0.6305 C.3       1 MOL         0.1407
      2 O1          0.6451   -0.3887   -1.6215 O.3       1 MOL        -0.5297
      3 P1         -0.2256   -1.2121   -2.7243 P.3       1 MOL         1.2348
      4 S1         -1.4458   -2.5576   -2.0140 S.2       1 MOL        -0.5873
      5 O2          0.9500   -1.7249   -3.7254 O.3       1 MOL        -0.5297
      6 C2          1.9856   -2.5554   -3.2285 C.3       1 MOL         0.1407
      7 O3         -0.8843    0.0037   -3.5707 O.3       1 MOL        -0.4642
      8 C3         -1.7272   -0.1140   -4.6428 C.ar      1 MOL         0.1660
      9 C4         -1.6293   -1.2188   -5.4887 C.ar      1 MOL        -0.1438
     10 C5         -2.4883   -1.3390   -6.5812 C.ar      1 MOL        -0.0549
     11 C6         -3.4450   -0.3543   -6.8278 C.ar      1 MOL        -0.1777
     12 C7         -3.5428    0.7505   -5.9818 C.ar      1 MOL        -0.0549
     13 C8         -2.6838    0.8706   -4.8894 C.ar      1 MOL        -0.1438
     14 N1         -4.3192   -0.4768   -7.9400 N.pl3     1 MOL         0.3140
     15 O4         -5.1728    0.4200   -8.1439 O.2       1 MOL        -0.2023
     16 O5         -4.2144   -1.4784   -8.6884 O.3       1 MOL        -0.2023
     17 H1          0.7236    0.8574    0.0157 H         1 MOL         0.0650
     18 H2         -0.6673   -0.2698   -0.0391 H         1 MOL         0.0650
     19 H3         -0.6197    1.1477   -1.1202 H         1 MOL         0.0650
     20 H4          2.6779   -2.7969   -4.0381 H         1 MOL         0.0650
     21 H5          1.5526   -3.4705   -2.8182 H         1 MOL         0.0650
     22 H6          2.5203   -2.0210   -2.4405 H         1 MOL         0.0650
     23 H7         -0.8859   -1.9890   -5.3019 H         1 MOL         0.1726
     24 H8         -2.4009   -2.2050   -7.2327 H         1 MOL         0.1795
     25 H9         -4.2842    1.5249   -6.1624 H         1 MOL         0.1795
     26 H10        -2.7649    1.7334   -4.2338 H         1 MOL         0.1726
@<TRIPOS>BOND
     1    1    2 1
     2    2    3 1
     3    3    4 2
     4    3    5 1
     5    5    6 1
     6    3    7 1
     7    7    8 1
     8    8   13 ar
     9    8    9 ar
    10    9   10 ar
    11   10   11 ar
    12   11   12 ar
    13   12   13 ar
    14   11   14 1
    15   14   15 2
    16   14   16 1
    17    1   17 1
    18    1   18 1
    19    1   19 1
    20    6   20 1
    21    6   21 1
    22    6   22 1
    23    9   23 1
    24   10   24 1
    25   12   25 1
    26   13   26 1
