@<TRIPOS>MOLECULE
3-methylbutanoic acid
   17    16     0     0     0
SMALL
USER_CHARGES

@<TRIPOS>ATOM
      1 C1          1.0711    0.0457    1.7142 C.3       1 MOL        -0.0971
      2 C2          0.5338   -0.3162    0.3282 C.3       1 MOL        -0.0595
      3 C3          1.4318    0.2953   -0.7503 C.3       1 MOL        -0.0971
      4 C4         -0.9198    0.1609    0.1859 C.3       1 MOL        -0.1690
      5 C5         -1.8485   -0.4578    1.2039 C.2       1 MOL         0.6255
      6 O1         -1.7292   -1.5629    1.7112 O.2       1 MOL        -0.4867
      7 O2         -2.8426    0.4118    1.5188 O.3       1 MOL        -0.5866
      8 H1          0.4405   -0.3837    2.5001 H         1 MOL         0.0400
      9 H2          1.1013    1.1312    1.8586 H         1 MOL         0.0400
     10 H3          2.0855   -0.3433    1.8522 H         1 MOL         0.0400
     11 H4          0.5715   -1.4082    0.2266 H         1 MOL         0.0723
     12 H5          1.0691    0.0510   -1.7547 H         1 MOL         0.0400
     13 H6          1.4583    1.3863   -0.6583 H         1 MOL         0.0400
     14 H7          2.4608   -0.0675   -0.6654 H         1 MOL         0.0400
     15 H8         -1.2895   -0.0739   -0.8193 H         1 MOL         0.0681
     16 H9         -0.9743    1.2466    0.3280 H         1 MOL         0.0681
     17 H10        -2.7727    1.2467    1.0086 H         1 MOL         0.4221
@<TRIPOS>BOND
     1    1    2 1
     2    2    3 1
     3    2    4 1
     4    4    5 1
     5    5    6 2
     6    5    7 1
     7    1    8 1
     8    1    9 1
     9    1   10 1
    10    2   11 1
    11    3   12 1
    12    3   13 1
    13    3   14 1
    14    4   15 1
    15    4   16 1
    16    7   17 1
