@<TRIPOS>MOLECULE
methyl 2-chloroacetate
   11    10     0     0     0
SMALL
USER_CHARGES

@<TRIPOS>ATOM
      1 C1         -0.3568   -0.1352    1.0261 C.3       1 MOL         0.1274
      2 O1          0.7387   -0.4465    1.8931 O.3       1 MOL        -0.4473
      3 C2          1.4126   -1.6000    1.6012 C.2       1 MOL         0.6207
      4 O2          1.1538   -2.3617    0.6799 O.2       1 MOL        -0.5069
      5 C3          2.5225   -1.7683    2.6029 C.3       1 MOL        -0.0293
      6 Cl1         3.4285   -3.2535    2.2666 Cl        1 MOL        -0.1288
      7 H1         -0.8220    0.8001    1.3468 H         1 MOL         0.0536
      8 H2         -1.0879   -0.9471    1.0554 H         1 MOL         0.0536
      9 H3          0.0183   -0.0219    0.0061 H         1 MOL         0.0536
     10 H4          2.1057   -1.8466    3.6099 H         1 MOL         0.1016
     11 H5          3.2155   -0.9261    2.5345 H         1 MOL         0.1016
@<TRIPOS>BOND
     1    1    2 1
     2    2    3 1
     3    3    4 2
     4    3    5 1
     5    5    6 1
     6    1    7 1
     7    1    8 1
     8    1    9 1
     9    5   10 1
    10    5   11 1
