@<TRIPOS>MOLECULE
(ethyldisulfanyl)ethane
   16    15     0     0     0
SMALL
USER_CHARGES

@<TRIPOS>ATOM
      1 C1         -0.2793    0.2909   -0.1360 C.3       1 MOL        -0.0956
      2 C2          0.8115   -0.6598    0.3193 C.3       1 MOL         0.0121
      3 S1          0.2411   -1.6598    1.7146 S.3       1 MOL        -0.2140
      4 S2          1.8940   -2.8212    2.1001 S.3       1 MOL        -0.2140
      5 C3          2.7903   -1.8006    3.2950 C.3       1 MOL         0.0121
      6 C4          4.0762   -2.4831    3.7269 C.3       1 MOL        -0.0955
      7 H1          0.0495    0.9049   -0.9813 H         1 MOL         0.0498
      8 H2         -1.1866   -0.2482   -0.4291 H         1 MOL         0.0498
      9 H3         -0.5470    0.9695    0.6808 H         1 MOL         0.0498
     10 H4          1.6992   -0.0988    0.6272 H         1 MOL         0.0740
     11 H5          1.0980   -1.3275   -0.4988 H         1 MOL         0.0740
     12 H6          3.0145   -0.8302    2.8383 H         1 MOL         0.0740
     13 H7          2.1484   -1.6230    4.1649 H         1 MOL         0.0740
     14 H8          4.6289   -1.8750    4.4510 H         1 MOL         0.0498
     15 H9          3.8794   -3.4636    4.1735 H         1 MOL         0.0498
     16 H10         4.7278   -2.6389    2.8606 H         1 MOL         0.0498
@<TRIPOS>BOND
     1    1    2 1
     2    2    3 1
     3    3    4 1
     4    4    5 1
     5    5    6 1
     6    1    7 1
     7    1    8 1
     8    1    9 1
     9    2   10 1
    10    2   11 1
    11    5   12 1
    12    5   13 1
    13    6   14 1
    14    6   15 1
    15    6   16 1
