@<TRIPOS>MOLECULE
(1R,2S,8R,9S)-1,9,10,11,12,12-hexachloro-4,6-dioxa-5-thiatricyclo[7.2.1.0^{2,8}]dodec-10-ene- 5-oxide
   25    27     0     0     0
SMALL
USER_CHARGES

@<TRIPOS>ATOM
      1 C1          1.2934    0.6380    1.5386 C.3       1 MOL         0.1620
      2 C2          0.3969    0.9624    0.3399 C.3       1 MOL        -0.1012
      3 H1          0.2092    2.0451    0.3800 H         1 MOL         0.1111
      4 C3         -1.0212    0.2583    0.2993 C.3       1 MOL        -0.1012
      5 H2         -1.7718    1.0616    0.3231 H         1 MOL         0.1111
      6 C4         -1.3593   -0.6786    1.4627 C.3       1 MOL         0.1620
      7 O1         -1.4754    0.0720    2.6715 O.3       1 MOL        -0.3966
      8 S1         -0.1563    0.1073    3.5969 S.o       1 MOL         0.7923
      9 O2         -0.5306    0.7872    4.8805 O.2       1 MOL        -0.4390
     10 O3          0.7108    1.1568    2.7343 O.3       1 MOL        -0.3966
     11 C5         -1.0167   -0.4123   -1.1212 C.3       1 MOL         0.0784
     12 C6          0.0326   -1.5072   -1.1044 C.2       1 MOL        -0.0392
     13 C7          1.2310   -0.9121   -1.0702 C.2       1 MOL        -0.0392
     14 C8          0.9931    0.5858   -1.0638 C.3       1 MOL         0.0784
     15 C9         -0.2622    0.6428   -1.9901 C.3       1 MOL         0.1349
     16 Cl1         0.0432    0.1256   -3.6923 Cl        1 MOL        -0.0853
     17 Cl2        -1.0561    2.2470   -2.0866 Cl        1 MOL        -0.0853
     18 Cl3         2.3335    1.5930   -1.5762 Cl        1 MOL        -0.0715
     19 Cl4         2.7573   -1.6420   -1.0067 Cl        1 MOL        -0.0074
     20 Cl5        -0.3102   -3.1652   -1.0946 Cl        1 MOL        -0.0074
     21 Cl6        -2.6038   -0.8587   -1.7175 Cl        1 MOL        -0.0715
     22 H3          2.2566    1.1464    1.4203 H         1 MOL         0.0528
     23 H4          1.5184   -0.4311    1.6328 H         1 MOL         0.0528
     24 H5         -2.3400   -1.1347    1.2884 H         1 MOL         0.0528
     25 H6         -0.6485   -1.5065    1.5707 H         1 MOL         0.0528
@<TRIPOS>BOND
     1    1   10 1
     2    1    2 1
     3    2    3 1
     4    2   14 1
     5    2    4 1
     6    4    5 1
     7    4    6 1
     8    6    7 1
     9    7    8 1
    10    8    9 2
    11    8   10 1
    12    4   11 1
    13   11   15 1
    14   11   12 1
    15   12   13 2
    16   13   14 1
    17   14   15 1
    18   15   16 1
    19   15   17 1
    20   14   18 1
    21   13   19 1
    22   12   20 1
    23   11   21 1
    24    1   22 1
    25    1   23 1
    26    6   24 1
    27    6   25 1
