@<TRIPOS>MOLECULE
4-propylphenol
   22    22     0     0     0
SMALL
USER_CHARGES

@<TRIPOS>ATOM
      1 C1          1.3035   -2.2292   -3.7215 C.3       1 MOL        -0.0933
      2 C2          1.2575   -2.2526   -2.2019 C.3       1 MOL        -0.0779
      3 C3          1.9293   -1.0151   -1.6028 C.3       1 MOL        -0.0319
      4 C4          1.8851   -1.0363   -0.1124 C.ar      1 MOL        -0.1128
      5 C5          2.9210   -1.6309    0.6081 C.ar      1 MOL        -0.0919
      6 C6          2.8783   -1.6520    2.0022 C.ar      1 MOL        -0.1834
      7 C7          1.7997   -1.0786    2.6757 C.ar      1 MOL         0.1201
      8 C8          0.7638   -0.4841    1.9551 C.ar      1 MOL        -0.1834
      9 C9          0.8066   -0.4630    0.5610 C.ar      1 MOL        -0.0919
     10 O1          1.7576   -1.1000    4.0359 O.3       1 MOL        -0.4987
     11 H1          0.8212   -3.1173   -4.1422 H         1 MOL         0.0334
     12 H2          0.7966   -1.3426   -4.1156 H         1 MOL         0.0334
     13 H3          2.3412   -2.2097   -4.0691 H         1 MOL         0.0334
     14 H4          1.7527   -3.1626   -1.8419 H         1 MOL         0.0428
     15 H5          0.2121   -2.3104   -1.8753 H         1 MOL         0.0428
     16 H6          1.4367   -0.1076   -1.9753 H         1 MOL         0.0459
     17 H7          2.9716   -0.9570   -1.9422 H         1 MOL         0.0459
     18 H8          3.7658   -2.0790    0.0917 H         1 MOL         0.1336
     19 H9          3.6884   -2.1165    2.5581 H         1 MOL         0.1411
     20 H10        -0.0791   -0.0355    2.4742 H         1 MOL         0.1411
     21 H11        -0.0046    0.0033    0.0079 H         1 MOL         0.1336
     22 H12         0.9506   -0.6650    4.3543 H         1 MOL         0.4183
@<TRIPOS>BOND
     1    1    2 1
     2    2    3 1
     3    3    4 1
     4    4    9 ar
     5    4    5 ar
     6    5    6 ar
     7    6    7 ar
     8    7    8 ar
     9    8    9 ar
    10    7   10 1
    11    1   11 1
    12    1   12 1
    13    1   13 1
    14    2   14 1
    15    2   15 1
    16    3   16 1
    17    3   17 1
    18    5   18 1
    19    6   19 1
    20    8   20 1
    21    9   21 1
    22   10   22 1
