@<TRIPOS>MOLECULE
1-chloro-2-phenyl-benzene
   22    23     0     0     0
SMALL
USER_CHARGES

@<TRIPOS>ATOM
      1 C1          1.8851   -1.0363   -0.1124 C.ar      1 MOL        -0.1254
      2 C2          2.9210   -1.6309    0.6081 C.ar      1 MOL        -0.1319
      3 C3          2.8783   -1.6520    2.0022 C.ar      1 MOL        -0.1079
      4 C4          1.7997   -1.0786    2.6757 C.ar      1 MOL        -0.0486
      5 C5          0.7638   -0.4841    1.9551 C.ar      1 MOL        -0.1079
      6 C6          0.8066   -0.4630    0.5610 C.ar      1 MOL        -0.1319
      7 C7          1.7549   -1.1005    4.1216 C.ar      1 MOL        -0.0361
      8 C8          1.1406   -2.1868    4.7449 C.ar      1 MOL        -0.1092
      9 C9          1.0759   -2.2471    6.1370 C.ar      1 MOL        -0.1315
     10 C10         1.6254   -1.2211    6.9058 C.ar      1 MOL        -0.1209
     11 C11         2.2396   -0.1348    6.2825 C.ar      1 MOL        -0.1279
     12 C12         2.3043   -0.0745    4.8904 C.ar      1 MOL         0.0294
     13 Cl1         3.0775    1.2956    4.1717 Cl        1 MOL        -0.0864
     14 H1          1.9174   -1.0212   -1.1979 H         1 MOL         0.1301
     15 H2          3.7605   -2.0787    0.0844 H         1 MOL         0.1329
     16 H3          3.6927   -2.1196    2.5504 H         1 MOL         0.1382
     17 H4         -0.0840   -0.0332    2.4655 H         1 MOL         0.1382
     18 H5         -0.0009   -0.0015    0.0001 H         1 MOL         0.1329
     19 H6          0.7069   -2.9957    4.1615 H         1 MOL         0.1435
     20 H7          0.5977   -3.0928    6.6225 H         1 MOL         0.1366
     21 H8          1.5749   -1.2682    7.9897 H         1 MOL         0.1362
     22 H9          2.6626    0.6560    6.8969 H         1 MOL         0.1477
@<TRIPOS>BOND
     1    1    6 ar
     2    1    2 ar
     3    2    3 ar
     4    3    4 ar
     5    4    5 ar
     6    5    6 ar
     7    4    7 1
     8    7   12 ar
     9    7    8 ar
    10    8    9 ar
    11    9   10 ar
    12   10   11 ar
    13   11   12 ar
    14   12   13 1
    15    1   14 1
    16    2   15 1
    17    3   16 1
    18    5   17 1
    19    6   18 1
    20    8   19 1
    21    9   20 1
    22   10   21 1
    23   11   22 1
