@<TRIPOS>MOLECULE
2-bromopropane
   11    10     0     0     0
SMALL
USER_CHARGES

@<TRIPOS>ATOM
      1 C1         -0.2496   -0.5656   -1.1352 C.3       1 MOL        -0.0961
      2 C2         -0.1530   -0.4084    0.3724 C.3       1 MOL         0.0236
      3 C3          0.2101    1.0085    0.7808 C.3       1 MOL        -0.0961
      4 Br1         1.2148   -1.6327    1.0501 Br        1 MOL        -0.1976
      5 H1         -0.5121   -1.5932   -1.4098 H         1 MOL         0.0484
      6 H2         -1.0216    0.0954   -1.5429 H         1 MOL         0.0484
      7 H3          0.6975   -0.3220   -1.6295 H         1 MOL         0.0484
      8 H4         -1.0890   -0.7156    0.8493 H         1 MOL         0.0755
      9 H5          0.2749    1.1016    1.8705 H         1 MOL         0.0484
     10 H6         -0.5480    1.7169    0.4305 H         1 MOL         0.0484
     11 H7          1.1759    1.3152    0.3637 H         1 MOL         0.0484
@<TRIPOS>BOND
     1    1    2 1
     2    2    3 1
     3    2    4 1
     4    1    5 1
     5    1    6 1
     6    1    7 1
     7    2    8 1
     8    3    9 1
     9    3   10 1
    10    3   11 1
