@<TRIPOS>MOLECULE
propan-2-ol
   12    11     0     0     0
SMALL
USER_CHARGES

@<TRIPOS>ATOM
      1 C1          1.0765    0.0499    0.1958 C.3       1 MOL        -0.1111
      2 C2          1.3532    0.9191    1.4130 C.3       1 MOL         0.1383
      3 C3          2.8427    1.0382    1.6976 C.3       1 MOL        -0.1111
      4 O1          0.8123    2.2184    1.1940 O.3       1 MOL        -0.6016
      5 H1          0.0028   -0.0291    0.0000 H         1 MOL         0.0433
      6 H2          1.5641    0.4693   -0.6907 H         1 MOL         0.0433
      7 H3          1.4833   -0.9585    0.3305 H         1 MOL         0.0433
      8 H4          0.8468    0.4961    2.2868 H         1 MOL         0.0284
      9 H5          3.0308    1.6651    2.5746 H         1 MOL         0.0433
     10 H6          3.3614    1.4749    0.8374 H         1 MOL         0.0433
     11 H7          3.2912    0.0533    1.8684 H         1 MOL         0.0433
     12 H8         -0.1413    2.1024    1.0591 H         1 MOL         0.3971
@<TRIPOS>BOND
     1    1    2 1
     2    2    3 1
     3    2    4 1
     4    1    5 1
     5    1    6 1
     6    1    7 1
     7    2    8 1
     8    3    9 1
     9    3   10 1
    10    3   11 1
    11    4   12 1
