@<TRIPOS>MOLECULE
chloroform
    5     4     0     0     0
SMALL
USER_CHARGES

@<TRIPOS>ATOM
      1 C1         -0.0654    0.0828   -0.0478 C.3       1 MOL         0.2243
      2 Cl1        -0.9538   -1.4475   -0.1352 Cl        1 MOL        -0.1144
      3 Cl2         0.2491    0.5251    1.6387 Cl        1 MOL        -0.1144
      4 Cl3         1.4517   -0.0250   -0.9566 Cl        1 MOL        -0.1144
      5 H1         -0.6817    0.8646   -0.4992 H         1 MOL         0.1189
@<TRIPOS>BOND
     1    1    2 1
     2    1    3 1
     3    1    4 1
     4    1    5 1
