@<TRIPOS>MOLECULE
1,2,3-trimethylbenzene
   21    21     0     0     0
SMALL
USER_CHARGES

@<TRIPOS>ATOM
      1 C1          1.9545   -1.0286   -1.6045 C.3       1 MOL        -0.0543
      2 C2          1.8851   -1.0363   -0.1124 C.ar      1 MOL        -0.0735
      3 C3          2.9210   -1.6309    0.6081 C.ar      1 MOL        -0.1332
      4 C4          2.8783   -1.6520    2.0022 C.ar      1 MOL        -0.1277
      5 C5          1.7997   -1.0786    2.6757 C.ar      1 MOL        -0.1332
      6 C6          0.7638   -0.4841    1.9551 C.ar      1 MOL        -0.0735
      7 C7          0.8066   -0.4630    0.5610 C.ar      1 MOL        -0.0714
      8 C8         -0.3054    0.1732   -0.2113 C.3       1 MOL        -0.0546
      9 C9         -0.3795    0.1229    2.7004 C.3       1 MOL        -0.0543
     10 H1          2.4677   -0.1263   -1.9508 H         1 MOL         0.0430
     11 H2          2.4932   -1.9068   -1.9754 H         1 MOL         0.0430
     12 H3          0.9511   -1.0554   -2.0426 H         1 MOL         0.0430
     13 H4          3.7661   -2.0799    0.0929 H         1 MOL         0.1290
     14 H5          3.6856   -2.1142    2.5627 H         1 MOL         0.1296
     15 H6          1.7762   -1.0987    3.7621 H         1 MOL         0.1290
     16 H7         -0.0907    1.2344   -0.3773 H         1 MOL         0.0434
     17 H8         -0.4393   -0.3147   -1.1836 H         1 MOL         0.0434
     18 H9         -1.2574    0.0869    0.3253 H         1 MOL         0.0434
     19 H10        -0.1735    1.1771    2.9186 H         1 MOL         0.0430
     20 H11        -1.3083    0.0607    2.1203 H         1 MOL         0.0430
     21 H12        -0.5584   -0.4018    3.6471 H         1 MOL         0.0430
@<TRIPOS>BOND
     1    1    2 1
     2    2    7 ar
     3    2    3 ar
     4    3    4 ar
     5    4    5 ar
     6    5    6 ar
     7    6    7 ar
     8    7    8 1
     9    6    9 1
    10    1   10 1
    11    1   11 1
    12    1   12 1
    13    3   13 1
    14    4   14 1
    15    5   15 1
    16    8   16 1
    17    8   17 1
    18    8   18 1
    19    9   19 1
    20    9   20 1
    21    9   21 1
