@<TRIPOS>MOLECULE
dimethyl sulfate
   13    12     0     0     0
SMALL
USER_CHARGES

@<TRIPOS>ATOM
      1 C1          0.9056    0.5937   -0.1920 C.3       1 MOL         0.1461
      2 O1          1.0186    1.5714    0.8310 O.3       1 MOL        -0.5411
      3 S1          2.3591    2.5054    0.8880 S.o2      1 MOL         1.8169
      4 O2          2.4485    3.2406   -0.3603 O.2       1 MOL        -0.6769
      5 O3          3.4635    1.6803    1.3422 O.2       1 MOL        -0.6769
      6 O4          1.9981    3.5680    2.0770 O.3       1 MOL        -0.5411
      7 C2          2.9502    4.5630    2.4214 C.3       1 MOL         0.1461
      8 H1         -0.0432    0.0621   -0.0857 H         1 MOL         0.0545
      9 H2          1.7394   -0.1091   -0.1193 H         1 MOL         0.0545
     10 H3          0.9348    1.0915   -1.1642 H         1 MOL         0.0545
     11 H4          2.5507    5.1820    3.2268 H         1 MOL         0.0545
     12 H5          3.1653    5.1764    1.5445 H         1 MOL         0.0545
     13 H6          3.8654    4.0726    2.7576 H         1 MOL         0.0545
@<TRIPOS>BOND
     1    1    2 1
     2    2    3 1
     3    3    4 2
     4    3    5 2
     5    3    6 1
     6    6    7 1
     7    1    8 1
     8    1    9 1
     9    1   10 1
    10    7   11 1
    11    7   12 1
    12    7   13 1
