@<TRIPOS>MOLECULE
naphthalen-1-amine
   20    21     0     0     0
SMALL
USER_CHARGES

@<TRIPOS>ATOM
      1 C1         -0.4966   -2.0341    0.4940 C.ar      1 MOL        -0.1210
      2 C2          0.3500   -1.0275    0.0392 C.ar      1 MOL        -0.1387
      3 C3          1.6484   -1.3369   -0.3665 C.ar      1 MOL        -0.1113
      4 C4          2.1168   -2.6602   -0.3222 C.ar      1 MOL        -0.0664
      5 C5          1.2560   -3.6839    0.1403 C.ar      1 MOL        -0.0055
      6 C6         -0.0479   -3.3542    0.5448 C.ar      1 MOL        -0.1248
      7 C7          1.7243   -5.0072    0.1848 C.ar      1 MOL        -0.1639
      8 C8          3.0228   -5.3167   -0.2210 C.ar      1 MOL        -0.0852
      9 C9          3.8693   -4.3100   -0.6758 C.ar      1 MOL        -0.2122
     10 C10         3.4207   -2.9899   -0.7267 C.ar      1 MOL         0.1536
     11 N1          4.3229   -2.0046   -1.1971 N.pl3     1 MOL        -0.8180
     12 H1         -1.5069   -1.7923    0.8104 H         1 MOL         0.1314
     13 H2         -0.0002    0.0001    0.0000 H         1 MOL         0.1308
     14 H3          2.2782   -0.5216   -0.7147 H         1 MOL         0.1259
     15 H4         -0.7270   -4.1249    0.9033 H         1 MOL         0.1329
     16 H5          1.0805   -5.8101    0.5374 H         1 MOL         0.1325
     17 H6          3.3728   -6.3444   -0.1827 H         1 MOL         0.1299
     18 H7          4.8788   -4.5652   -0.9886 H         1 MOL         0.1306
     19 H8          4.0057   -1.0635   -1.2853 H         1 MOL         0.3898
     20 H9          5.2229   -2.2896   -1.5179 H         1 MOL         0.3898
@<TRIPOS>BOND
     1    1    6 ar
     2    1    2 ar
     3    2    3 ar
     4    3    4 ar
     5    4   10 ar
     6    4    5 ar
     7    5    6 ar
     8    5    7 ar
     9    7    8 ar
    10    8    9 ar
    11    9   10 ar
    12   10   11 1
    13    1   12 1
    14    2   13 1
    15    3   14 1
    16    6   15 1
    17    7   16 1
    18    8   17 1
    19    9   18 1
    20   11   19 1
    21   11   20 1
