@<TRIPOS>MOLECULE
propionic acid
   11    10     0     0     0
SMALL
USER_CHARGES

@<TRIPOS>ATOM
      1 C1          0.7690   -0.5809   -0.5200 C.3       1 MOL        -0.0884
      2 C2          0.3923   -0.8062   -1.9738 C.3       1 MOL        -0.1746
      3 C3         -0.9082   -1.5561   -2.1106 C.2       1 MOL         0.6230
      4 O1         -1.6105   -1.9554   -1.1941 O.2       1 MOL        -0.4816
      5 O2         -1.2065   -1.7349   -3.4232 O.3       1 MOL        -0.5868
      6 H1          1.7152   -0.0354   -0.4515 H         1 MOL         0.0504
      7 H2          0.0002    0.0003   -0.0001 H         1 MOL         0.0504
      8 H3          0.8833   -1.5331    0.0087 H         1 MOL         0.0504
      9 H4          0.2897    0.1613   -2.4762 H         1 MOL         0.0679
     10 H5          1.1801   -1.3852   -2.4671 H         1 MOL         0.0679
     11 H6         -0.5236   -1.3450   -4.0098 H         1 MOL         0.4214
@<TRIPOS>BOND
     1    1    2 1
     2    2    3 1
     3    3    4 2
     4    3    5 1
     5    1    6 1
     6    1    7 1
     7    1    8 1
     8    2    9 1
     9    2   10 1
    10    5   11 1
