@<TRIPOS>MOLECULE
2,4-dimethylpyridine
   17    17     0     0     0
SMALL
USER_CHARGES

@<TRIPOS>ATOM
      1 C1          2.3462    0.8984    1.0438 C.3       1 MOL        -0.0620
      2 C2          1.3879   -0.0684    1.6522 C.ar      1 MOL        -0.0349
      3 C3          0.2265   -0.4197    0.9733 C.ar      1 MOL        -0.2560
      4 C4         -0.6317   -1.3224    1.5803 C.ar      1 MOL         0.4030
      5 N1         -0.4092   -1.8816    2.7908 N.ar      1 MOL        -0.6734
      6 C5          0.7299   -1.5161    3.4206 C.ar      1 MOL         0.4153
      7 C6          1.6520   -0.6227    2.8997 C.ar      1 MOL        -0.2516
      8 C7          0.9808   -2.1305    4.7573 C.3       1 MOL        -0.1499
      9 H1          3.0854    0.3633    0.4400 H         1 MOL         0.0491
     10 H2          1.8229    1.6189    0.4065 H         1 MOL         0.0491
     11 H3          2.8685    1.4705    1.8179 H         1 MOL         0.0491
     12 H4         -0.0084   -0.0046   -0.0009 H         1 MOL         0.1424
     13 H5         -1.5512   -1.6288    1.0924 H         1 MOL         0.0198
     14 H6          2.5523   -0.3625    3.4473 H         1 MOL         0.1412
     15 H7          1.5439   -3.0650    4.6474 H         1 MOL         0.0529
     16 H8          1.5519   -1.4534    5.4051 H         1 MOL         0.0529
     17 H9          0.0394   -2.3496    5.2771 H         1 MOL         0.0529
@<TRIPOS>BOND
     1    1    2 1
     2    2    7 ar
     3    2    3 ar
     4    3    4 ar
     5    4    5 ar
     6    5    6 ar
     7    6    7 ar
     8    6    8 1
     9    1    9 1
    10    1   10 1
    11    1   11 1
    12    3   12 1
    13    4   13 1
    14    7   14 1
    15    8   15 1
    16    8   16 1
    17    8   17 1
