@<TRIPOS>MOLECULE
benzenethiol
   13    13     0     0     0
SMALL
USER_CHARGES

@<TRIPOS>ATOM
      1 C1          1.8851   -1.0363   -0.1124 C.ar      1 MOL        -0.1371
      2 C2          2.9210   -1.6309    0.6081 C.ar      1 MOL        -0.1131
      3 C3          2.8783   -1.6520    2.0022 C.ar      1 MOL        -0.1322
      4 C4          1.7997   -1.0786    2.6757 C.ar      1 MOL         0.0171
      5 C5          0.7638   -0.4841    1.9551 C.ar      1 MOL        -0.1322
      6 C6          0.8066   -0.4630    0.5610 C.ar      1 MOL        -0.1131
      7 S1          1.7452   -1.1049    4.4568 S.3       1 MOL        -0.2561
      8 H1          1.9179   -1.0195   -1.1979 H         1 MOL         0.1342
      9 H2          3.7604   -2.0771    0.0830 H         1 MOL         0.1333
     10 H3          3.6951   -2.1197    2.5465 H         1 MOL         0.1367
     11 H4         -0.0850   -0.0319    2.4622 H         1 MOL         0.1367
     12 H5          0.0000    0.0003    0.0002 H         1 MOL         0.1333
     13 H6          2.9048   -1.7504    4.6537 H         1 MOL         0.1925
@<TRIPOS>BOND
     1    1    6 ar
     2    1    2 ar
     3    2    3 ar
     4    3    4 ar
     5    4    5 ar
     6    5    6 ar
     7    4    7 1
     8    1    8 1
     9    2    9 1
    10    3   10 1
    11    5   11 1
    12    6   12 1
    13    7   13 1
