@<TRIPOS>MOLECULE
2-iodopropane
   11    10     0     0     0
SMALL
USER_CHARGES

@<TRIPOS>ATOM
      1 C1         -0.2701   -0.5443   -1.1412 C.3       1 MOL        -0.0927
      2 C2         -0.1818   -0.4030    0.3755 C.3       1 MOL         0.1007
      3 C3          0.2417    1.0079    0.7727 C.3       1 MOL        -0.0927
      4 I1          1.2321   -1.8337    1.1580 I         1 MOL        -0.2676
      5 H1         -0.5741   -1.5570   -1.4281 H         1 MOL         0.0463
      6 H2         -1.0109    0.1517   -1.5493 H         1 MOL         0.0463
      7 H3          0.6897   -0.3327   -1.6256 H         1 MOL         0.0463
      8 H4         -1.1655   -0.6149    0.8103 H         1 MOL         0.0745
      9 H5          0.3055    1.1107    1.8616 H         1 MOL         0.0463
     10 H6         -0.4858    1.7433    0.4128 H         1 MOL         0.0463
     11 H7          1.2191    1.2717    0.3535 H         1 MOL         0.0463
@<TRIPOS>BOND
     1    1    2 1
     2    2    3 1
     3    2    4 1
     4    1    5 1
     5    1    6 1
     6    1    7 1
     7    2    8 1
     8    3    9 1
     9    3   10 1
    10    3   11 1
