@<TRIPOS>MOLECULE
2-ethylpyridine
   17    17     0     0     0
SMALL
USER_CHARGES

@<TRIPOS>ATOM
      1 C1          0.3912   -1.2950    5.8834 C.3       1 MOL        -0.0892
      2 C2          0.9810   -2.1301    4.7574 C.3       1 MOL        -0.1339
      3 C3          0.7299   -1.5161    3.4206 C.ar      1 MOL         0.4114
      4 C4          1.6520   -0.6227    2.8997 C.ar      1 MOL        -0.2437
      5 C5          1.3879   -0.0684    1.6522 C.ar      1 MOL        -0.0911
      6 C6          0.2265   -0.4197    0.9733 C.ar      1 MOL        -0.2528
      7 C7         -0.6317   -1.3224    1.5803 C.ar      1 MOL         0.3984
      8 N1         -0.4092   -1.8816    2.7908 N.ar      1 MOL        -0.6671
      9 H1          0.5808   -1.7539    6.8598 H         1 MOL         0.0386
     10 H2         -0.6920   -1.2013    5.7574 H         1 MOL         0.0386
     11 H3          0.8196   -0.2871    5.8970 H         1 MOL         0.0386
     12 H4          0.5570   -3.1412    4.7848 H         1 MOL         0.0553
     13 H5          2.0603   -2.2504    4.9115 H         1 MOL         0.0553
     14 H6          2.5545   -0.3569    3.4396 H         1 MOL         0.1426
     15 H7          2.0859    0.6359    1.2097 H         1 MOL         0.1367
     16 H8          0.0002   -0.0003   -0.0003 H         1 MOL         0.1416
     17 H9         -1.5509   -1.6291    1.0922 H         1 MOL         0.0209
@<TRIPOS>BOND
     1    1    2 1
     2    2    3 1
     3    3    8 ar
     4    3    4 ar
     5    4    5 ar
     6    5    6 ar
     7    6    7 ar
     8    7    8 ar
     9    1    9 1
    10    1   10 1
    11    1   11 1
    12    2   12 1
    13    2   13 1
    14    4   14 1
    15    5   15 1
    16    6   16 1
    17    7   17 1
