@<TRIPOS>MOLECULE
N,N-diethylethanamine
   22    21     0     0     0
SMALL
USER_CHARGES

@<TRIPOS>ATOM
      1 C1         -1.0862    0.8639    1.5853 C.3       1 MOL        -0.0954
      2 C2         -0.2717   -0.2549    1.0309 C.3       1 MOL         0.1609
      3 N1          0.9013   -0.5170    1.8640 N.3       1 MOL        -0.7204
      4 C3          1.7513    0.6707    1.9381 C.3       1 MOL         0.1609
      5 C4          2.9379    0.3996    2.7833 C.3       1 MOL        -0.0954
      6 C5          1.6567   -1.6543    1.3398 C.3       1 MOL         0.1609
      7 C6          0.8081   -2.8689    1.3233 C.3       1 MOL        -0.0954
      8 H1         -1.9635    1.0567    0.9583 H         1 MOL         0.0378
      9 H2         -1.4143    0.6393    2.6060 H         1 MOL         0.0378
     10 H3         -0.4853    1.7807    1.6167 H         1 MOL         0.0378
     11 H4          0.0815   -0.0101    0.0246 H         1 MOL         0.0306
     12 H5         -0.8594   -1.1764    0.9835 H         1 MOL         0.0306
     13 H6          2.0338    0.9119    0.9169 H         1 MOL         0.0306
     14 H7          1.1346    1.4653    2.3488 H         1 MOL         0.0306
     15 H8          3.5881    1.2786    2.8513 H         1 MOL         0.0378
     16 H9          2.6458    0.0877    3.7919 H         1 MOL         0.0378
     17 H10         3.5168   -0.4146    2.3312 H         1 MOL         0.0378
     18 H11         1.9777   -1.3764    0.3396 H         1 MOL         0.0306
     19 H12         2.5217   -1.7733    1.9863 H         1 MOL         0.0306
     20 H13         1.3567   -3.7332    0.9333 H         1 MOL         0.0378
     21 H14         0.4287   -3.1036    2.3238 H         1 MOL         0.0378
     22 H15        -0.0527   -2.6913    0.6676 H         1 MOL         0.0378
@<TRIPOS>BOND
     1    1    2 1
     2    2    3 1
     3    3    4 1
     4    4    5 1
     5    3    6 1
     6    6    7 1
     7    1    8 1
     8    1    9 1
     9    1   10 1
    10    2   11 1
    11    2   12 1
    12    4   13 1
    13    4   14 1
    14    5   15 1
    15    5   16 1
    16    5   17 1
    17    6   18 1
    18    6   19 1
    19    7   20 1
    20    7   21 1
    21    7   22 1
