@<TRIPOS>MOLECULE
isobutyl acetate
   20    19     0     0     0
SMALL
USER_CHARGES

@<TRIPOS>ATOM
      1 C1          0.9983   -0.3578   -0.2742 C.3       1 MOL        -0.0923
      2 C2          1.8182    0.7470   -0.9439 C.3       1 MOL        -0.0936
      3 C3          1.1578    1.1798   -2.2511 C.3       1 MOL        -0.0923
      4 C4          1.9991    1.9493   -0.0132 C.3       1 MOL         0.1384
      5 O1          2.6754    1.5475    1.1709 O.3       1 MOL        -0.4524
      6 C5          2.9011    2.5336    2.0913 C.2       1 MOL         0.6382
      7 O2          2.5763    3.7082    1.9825 O.2       1 MOL        -0.5350
      8 C6          3.6170    1.9674    3.2801 C.3       1 MOL        -0.1545
      9 H1          1.4668   -0.6730    0.6644 H         1 MOL         0.0380
     10 H2          0.9144   -1.2373   -0.9218 H         1 MOL         0.0380
     11 H3         -0.0135   -0.0122   -0.0385 H         1 MOL         0.0380
     12 H4          2.8075    0.3294   -1.1709 H         1 MOL         0.0555
     13 H5          1.7384    1.9708   -2.7374 H         1 MOL         0.0380
     14 H6          0.1511    1.5698   -2.0675 H         1 MOL         0.0380
     15 H7          1.0744    0.3418   -2.9516 H         1 MOL         0.0380
     16 H8          2.6000    2.7249   -0.4995 H         1 MOL         0.0671
     17 H9          1.0323    2.3812    0.2672 H         1 MOL         0.0671
     18 H10         4.6972    2.0356    3.1296 H         1 MOL         0.0751
     19 H11         3.3141    0.9289    3.4355 H         1 MOL         0.0751
     20 H12         3.3520    2.5438    4.1712 H         1 MOL         0.0751
@<TRIPOS>BOND
     1    1    2 1
     2    2    3 1
     3    2    4 1
     4    4    5 1
     5    5    6 1
     6    6    7 2
     7    6    8 1
     8    1    9 1
     9    1   10 1
    10    1   11 1
    11    2   12 1
    12    3   13 1
    13    3   14 1
    14    3   15 1
    15    4   16 1
    16    4   17 1
    17    8   18 1
    18    8   19 1
    19    8   20 1
