@<TRIPOS>MOLECULE
iodobenzene
   12    12     0     0     0
SMALL
USER_CHARGES

@<TRIPOS>ATOM
      1 C1          1.8851   -1.0363   -0.1124 C.ar      1 MOL        -0.1123
      2 C2          2.9210   -1.6309    0.6081 C.ar      1 MOL        -0.1339
      3 C3          2.8783   -1.6520    2.0022 C.ar      1 MOL        -0.0964
      4 C4          1.7997   -1.0786    2.6757 C.ar      1 MOL         0.0230
      5 C5          0.7638   -0.4841    1.9551 C.ar      1 MOL        -0.0964
      6 C6          0.8066   -0.4630    0.5610 C.ar      1 MOL        -0.1339
      7 I1          1.7360   -1.1105    4.7518 I         1 MOL        -0.1456
      8 H1          1.9183   -1.0200   -1.1979 H         1 MOL         0.1348
      9 H2          3.7608   -2.0771    0.0836 H         1 MOL         0.1369
     10 H3          3.6956   -2.1202    2.5446 H         1 MOL         0.1435
     11 H4         -0.0855   -0.0318    2.4604 H         1 MOL         0.1435
     12 H5          0.0001   -0.0000   -0.0002 H         1 MOL         0.1369
@<TRIPOS>BOND
     1    1    6 ar
     2    1    2 ar
     3    2    3 ar
     4    3    4 ar
     5    4    5 ar
     6    5    6 ar
     7    4    7 1
     8    1    8 1
     9    2    9 1
    10    3   10 1
    11    5   11 1
    12    6   12 1
