@<TRIPOS>MOLECULE
1,2,4,5-tetrachloro-3-(3,4-dichlorophenyl)benzene
   22    23     0     0     0
SMALL
USER_CHARGES

@<TRIPOS>ATOM
      1 C1          1.8851   -1.0363   -0.1124 C.ar      1 MOL        -0.0916
      2 C2          2.9210   -1.6309    0.6081 C.ar      1 MOL        -0.1198
      3 C3          2.8783   -1.6520    2.0022 C.ar      1 MOL         0.0265
      4 C4          1.7997   -1.0786    2.6757 C.ar      1 MOL         0.0149
      5 C5          0.7638   -0.4841    1.9551 C.ar      1 MOL        -0.0877
      6 C6          0.8066   -0.4630    0.5610 C.ar      1 MOL        -0.0462
      7 C7         -0.2670    0.1541   -0.1873 C.ar      1 MOL        -0.0204
      8 C8         -0.2007    1.5089   -0.5128 C.ar      1 MOL         0.0333
      9 C9         -1.2356    2.1043   -1.2340 C.ar      1 MOL         0.0195
     10 C10        -2.3368    1.3450   -1.6296 C.ar      1 MOL        -0.1047
     11 C11        -2.4031   -0.0097   -1.3040 C.ar      1 MOL         0.0195
     12 C12        -1.3682   -0.6052   -0.5828 C.ar      1 MOL         0.0333
     13 Cl1        -1.4543   -2.2967   -0.1782 Cl        1 MOL        -0.0413
     14 Cl2        -3.7993   -0.8871   -1.8288 Cl        1 MOL        -0.0511
     15 Cl3        -1.2245    3.7776   -1.6752 Cl        1 MOL        -0.0511
     16 Cl4         1.1718    2.4611   -0.0213 Cl        1 MOL        -0.0413
     17 Cl5         1.6916   -1.0704    4.4011 Cl        1 MOL        -0.0634
     18 Cl6         4.1940   -2.3992    2.8382 Cl        1 MOL        -0.0640
     19 H1          1.9323   -1.0278   -1.1989 H         1 MOL         0.1507
     20 H2          3.7532   -2.0746    0.0671 H         1 MOL         0.1545
     21 H3         -0.0785   -0.0355    2.4784 H         1 MOL         0.1596
     22 H4         -3.1434    1.8089   -2.1941 H         1 MOL         0.1709
@<TRIPOS>BOND
     1    1    6 ar
     2    1    2 ar
     3    2    3 ar
     4    3    4 ar
     5    4    5 ar
     6    5    6 ar
     7    6    7 1
     8    7   12 ar
     9    7    8 ar
    10    8    9 ar
    11    9   10 ar
    12   10   11 ar
    13   11   12 ar
    14   12   13 1
    15   11   14 1
    16    9   15 1
    17    8   16 1
    18    4   17 1
    19    3   18 1
    20    1   19 1
    21    2   20 1
    22    5   21 1
    23   10   22 1
