@<TRIPOS>MOLECULE
3-nitrooxypropyl nitrate
   17    16     0     0     0
SMALL
USER_CHARGES

@<TRIPOS>ATOM
      1 C1          0.7769   -0.0127   -0.7752 C.3       1 MOL        -0.0882
      2 C2          0.3977    0.9315   -1.9041 C.3       1 MOL         0.1256
      3 O1          0.2087    2.2343   -1.3695 O.3       1 MOL        -0.3422
      4 N1         -0.1516    3.2036   -2.3467 N.pl3     1 MOL         0.3766
      5 O2         -0.2582    2.8237   -3.5150 O.2       1 MOL        -0.1720
      6 O3         -0.3119    4.3278   -1.8698 O.3       1 MOL        -0.1720
      7 C3          0.9970   -1.4335   -1.2704 C.3       1 MOL         0.1256
      8 O4          1.3484   -2.2752   -0.1803 O.3       1 MOL        -0.3422
      9 N2          1.5734   -3.6286   -0.5564 N.pl3     1 MOL         0.3766
     10 O5          1.4442   -3.9190   -1.7479 O.2       1 MOL        -0.1720
     11 O6          1.8767   -4.3464    0.3974 O.3       1 MOL        -0.1720
     12 H1          1.6790    0.3515   -0.2672 H         1 MOL         0.0859
     13 H2          0.0000    0.0000    0.0000 H         1 MOL         0.0859
     14 H3          1.1895    0.9762   -2.6586 H         1 MOL         0.0711
     15 H4         -0.5337    0.6132   -2.3832 H         1 MOL         0.0711
     16 H5          1.8115   -1.4700   -2.0003 H         1 MOL         0.0711
     17 H6          0.0947   -1.8356   -1.7423 H         1 MOL         0.0711
@<TRIPOS>BOND
     1    1    2 1
     2    2    3 1
     3    3    4 1
     4    4    5 2
     5    4    6 1
     6    1    7 1
     7    7    8 1
     8    8    9 1
     9    9   10 2
    10    9   11 1
    11    1   12 1
    12    1   13 1
    13    2   14 1
    14    2   15 1
    15    7   16 1
    16    7   17 1
