@<TRIPOS>MOLECULE
propyl butanoate
   23    22     0     0     0
SMALL
USER_CHARGES

@<TRIPOS>ATOM
      1 C1         -0.3792   -0.7021    0.7539 C.3       1 MOL        -0.0939
      2 C2          0.4043   -0.5826    2.0509 C.3       1 MOL        -0.0792
      3 C3          1.8852   -0.8881    1.8405 C.3       1 MOL        -0.1330
      4 C4          2.6749   -0.7723    3.1243 C.2       1 MOL         0.6349
      5 O1          2.2091   -0.4717    4.2148 O.2       1 MOL        -0.5336
      6 O2          3.9853   -1.0584    2.8643 O.3       1 MOL        -0.4481
      7 C5          4.8658   -0.9912    3.9907 C.3       1 MOL         0.1334
      8 C6          6.2691   -1.3347    3.5259 C.3       1 MOL        -0.1090
      9 C7          7.2624   -1.2837    4.6728 C.3       1 MOL        -0.0923
     10 H1         -1.4367   -0.4792    0.9278 H         1 MOL         0.0380
     11 H2         -0.0032   -0.0007    0.0022 H         1 MOL         0.0380
     12 H3         -0.3085   -1.7152    0.3450 H         1 MOL         0.0380
     13 H4         -0.0178   -1.2709    2.7930 H         1 MOL         0.0529
     14 H5          0.2845    0.4299    2.4546 H         1 MOL         0.0529
     15 H6          2.3081   -0.1846    1.1145 H         1 MOL         0.0775
     16 H7          2.0013   -1.9086    1.4589 H         1 MOL         0.0775
     17 H8          4.5105   -1.7007    4.7402 H         1 MOL         0.0679
     18 H9          4.8183    0.0207    4.3969 H         1 MOL         0.0679
     19 H10         6.2760   -2.3328    3.0716 H         1 MOL         0.0496
     20 H11         6.5782   -0.6416    2.7343 H         1 MOL         0.0496
     21 H12         8.2714   -1.5326    4.3288 H         1 MOL         0.0370
     22 H13         7.2899   -0.2794    5.1069 H         1 MOL         0.0370
     23 H14         6.9851   -1.9880    5.4635 H         1 MOL         0.0370
@<TRIPOS>BOND
     1    1    2 1
     2    2    3 1
     3    3    4 1
     4    4    5 2
     5    4    6 1
     6    6    7 1
     7    7    8 1
     8    8    9 1
     9    1   10 1
    10    1   11 1
    11    1   12 1
    12    2   13 1
    13    2   14 1
    14    3   15 1
    15    3   16 1
    16    7   17 1
    17    7   18 1
    18    8   19 1
    19    8   20 1
    20    9   21 1
    21    9   22 1
    22    9   23 1
