@<TRIPOS>MOLECULE
nonan-1-ol
   30    29     0     0     0
SMALL
USER_CHARGES

@<TRIPOS>ATOM
      1 C1         -1.8710    1.8431    4.1149 C.3       1 MOL        -0.0917
      2 C2         -2.3272    1.9106    2.6654 C.3       1 MOL        -0.0802
      3 C3         -1.9724    3.2559    2.0317 C.3       1 MOL        -0.0788
      4 C4         -2.4110    3.3758    0.5690 C.3       1 MOL        -0.0781
      5 C5         -2.0823    4.7035   -0.1204 C.3       1 MOL        -0.0780
      6 C6         -2.5441    4.7640   -1.5779 C.3       1 MOL        -0.0783
      7 C7         -2.1905    6.1099   -2.2158 C.3       1 MOL        -0.0774
      8 C8         -2.6524    6.1714   -3.6747 C.3       1 MOL        -0.0847
      9 C9         -2.3110    7.5033   -4.3315 C.3       1 MOL         0.1323
     10 O1         -2.7595    7.5081   -5.6791 O.3       1 MOL        -0.6028
     11 H1         -2.1338    0.8737    4.5500 H         1 MOL         0.0328
     12 H2         -0.7860    1.9664    4.1914 H         1 MOL         0.0328
     13 H3         -2.3493    2.6251    4.7132 H         1 MOL         0.0328
     14 H4         -3.4098    1.7476    2.6322 H         1 MOL         0.0377
     15 H5         -1.8559    1.0971    2.1019 H         1 MOL         0.0377
     16 H6         -2.4049    4.0716    2.6225 H         1 MOL         0.0384
     17 H7         -0.8844    3.3940    2.0705 H         1 MOL         0.0384
     18 H8         -3.4948    3.2152    0.5104 H         1 MOL         0.0398
     19 H9         -1.9487    2.5584    0.0015 H         1 MOL         0.0398
     20 H10        -2.5722    5.5074    0.4438 H         1 MOL         0.0392
     21 H11        -1.0058    4.9013   -0.0624 H         1 MOL         0.0392
     22 H12        -3.6285    4.6080   -1.6265 H         1 MOL         0.0411
     23 H13        -2.0725    3.9607   -2.1548 H         1 MOL         0.0411
     24 H14        -2.6630    6.9208   -1.6483 H         1 MOL         0.0392
     25 H15        -1.1064    6.2649   -2.1602 H         1 MOL         0.0392
     26 H16        -2.1720    5.3588   -4.2331 H         1 MOL         0.0551
     27 H17        -3.7360    6.0147   -3.7252 H         1 MOL         0.0551
     28 H18        -2.8089    8.3208   -3.8006 H         1 MOL         0.0199
     29 H19        -1.2310    7.6818   -4.3178 H         1 MOL         0.0199
     30 H20        -2.5202    8.3723   -6.0520 H         1 MOL         0.3986
@<TRIPOS>BOND
     1    1    2 1
     2    2    3 1
     3    3    4 1
     4    4    5 1
     5    5    6 1
     6    6    7 1
     7    7    8 1
     8    8    9 1
     9    9   10 1
    10    1   11 1
    11    1   12 1
    12    1   13 1
    13    2   14 1
    14    2   15 1
    15    3   16 1
    16    3   17 1
    17    4   18 1
    18    4   19 1
    19    5   20 1
    20    5   21 1
    21    6   22 1
    22    6   23 1
    23    7   24 1
    24    7   25 1
    25    8   26 1
    26    8   27 1
    27    9   28 1
    28    9   29 1
    29   10   30 1
