@<TRIPOS>MOLECULE
1-chloroheptane
   23    22     0     0     0
SMALL
USER_CHARGES

@<TRIPOS>ATOM
      1 C1         -3.6203    0.6141    0.4882 C.3       1 MOL        -0.0920
      2 C2         -2.1426    0.7079    0.8334 C.3       1 MOL        -0.0795
      3 C3         -1.2698    0.1231   -0.2770 C.3       1 MOL        -0.0787
      4 C4          0.2167    0.2192    0.0740 C.3       1 MOL        -0.0773
      5 C5          1.0874   -0.3672   -1.0397 C.3       1 MOL        -0.0793
      6 C6          2.5876   -0.2964   -0.7396 C.3       1 MOL        -0.0923
      7 C7          3.4491   -0.8815   -1.8516 C.3       1 MOL         0.0397
      8 Cl1         5.1734   -0.7607   -1.4255 Cl        1 MOL        -0.2008
      9 H1         -4.2260    1.0378    1.2954 H         1 MOL         0.0334
     10 H2         -3.8443    1.1659   -0.4302 H         1 MOL         0.0334
     11 H3         -3.9244   -0.4278    0.3459 H         1 MOL         0.0334
     12 H4         -1.9583    0.1736    1.7726 H         1 MOL         0.0386
     13 H5         -1.8784    1.7585    1.0005 H         1 MOL         0.0386
     14 H6         -1.4619    0.6584   -1.2149 H         1 MOL         0.0388
     15 H7         -1.5404   -0.9270   -0.4428 H         1 MOL         0.0388
     16 H8          0.3977   -0.3150    1.0134 H         1 MOL         0.0414
     17 H9          0.4877    1.2691    0.2385 H         1 MOL         0.0414
     18 H10         0.8986    0.1842   -1.9694 H         1 MOL         0.0412
     19 H11         0.7988   -1.4088   -1.2265 H         1 MOL         0.0412
     20 H12         2.8542    0.7578   -0.5905 H         1 MOL         0.0562
     21 H13         2.7959   -0.8113    0.2065 H         1 MOL         0.0562
     22 H14         3.2324   -1.9401   -2.0161 H         1 MOL         0.0637
     23 H15         3.3014   -0.3422   -2.7919 H         1 MOL         0.0637
@<TRIPOS>BOND
     1    1    2 1
     2    2    3 1
     3    3    4 1
     4    4    5 1
     5    5    6 1
     6    6    7 1
     7    7    8 1
     8    1    9 1
     9    1   10 1
    10    1   11 1
    11    2   12 1
    12    2   13 1
    13    3   14 1
    14    3   15 1
    15    4   16 1
    16    4   17 1
    17    5   18 1
    18    5   19 1
    19    6   20 1
    20    6   21 1
    21    7   22 1
    22    7   23 1
