@<TRIPOS>MOLECULE
thiophene
    9     9     0     0     0
SMALL
USER_CHARGES

@<TRIPOS>ATOM
      1 C1         -0.4682   -0.0882   -0.9718 C.2       1 MOL        -0.1569
      2 C2         -0.2528    0.8087   -2.0577 C.2       1 MOL        -0.1568
      3 C3         -0.9783    0.4538   -3.1737 C.2       1 MOL        -0.1697
      4 S1         -1.9146   -0.9556   -2.9098 S.3       1 MOL         0.0094
      5 C4         -1.3504   -1.0945   -1.2990 C.2       1 MOL        -0.1697
      6 H1         -0.0002   -0.0001    0.0001 H         1 MOL         0.1523
      7 H2          0.4010    1.6704   -2.0224 H         1 MOL         0.1523
      8 H3         -1.0031    0.9546   -4.1312 H         1 MOL         0.1695
      9 H4         -1.6902   -1.9046   -0.6692 H         1 MOL         0.1695
@<TRIPOS>BOND
     1    1    5 2
     2    1    2 1
     3    2    3 2
     4    3    4 1
     5    4    5 1
     6    1    6 1
     7    2    7 1
     8    3    8 1
     9    5    9 1
