@<TRIPOS>MOLECULE
5-iodo-1H-pyrimidine-2,4-dione
   12    12     0     0     0
SMALL
USER_CHARGES

@<TRIPOS>ATOM
      1 C1          0.6799    1.3319   -0.0633 C.2       1 MOL         0.0911
      2 C2         -0.4156    0.9696    0.6155 C.2       1 MOL        -0.1914
      3 C3         -0.8893   -0.4427    0.5030 C.2       1 MOL         0.7261
      4 O1         -1.8849   -0.8532    1.0938 O.2       1 MOL        -0.5857
      5 N1         -0.1141   -1.2509   -0.3219 N.am      1 MOL        -0.5842
      6 C4          1.0277   -0.8642   -1.0264 C.2       1 MOL         0.8037
      7 O2          1.6640   -1.6403   -1.7397 O.2       1 MOL        -0.6258
      8 N2          1.3819    0.4639   -0.8543 N.am      1 MOL        -0.4657
      9 I1         -1.4495    2.2858    1.7932 I         1 MOL        -0.0560
     10 H1          1.0863    2.3366   -0.0317 H         1 MOL         0.1702
     11 H2         -0.4078   -2.2186   -0.4217 H         1 MOL         0.3583
     12 H3          2.2028    0.8195   -1.3354 H         1 MOL         0.3595
@<TRIPOS>BOND
     1    1    8 1
     2    1    2 2
     3    2    3 1
     4    3    4 2
     5    3    5 am
     6    5    6 am
     7    6    7 2
     8    6    8 am
     9    2    9 1
    10    1   10 1
    11    5   11 1
    12    8   12 1
