@<TRIPOS>MOLECULE
2,4-dimethylpentane
   23    22     0     0     0
SMALL
USER_CHARGES

@<TRIPOS>ATOM
      1 C1         -0.1769   -0.3057   -1.0577 C.3       1 MOL        -0.0899
      2 C2         -1.6117    0.0267   -1.4683 C.3       1 MOL        -0.0670
      3 C3         -1.7823   -0.1980   -2.9739 C.3       1 MOL        -0.0899
      4 C4         -2.6543   -0.8084   -0.6980 C.3       1 MOL        -0.0706
      5 C5         -2.6485   -0.6472    0.8355 C.3       1 MOL        -0.0670
      6 C6         -2.9176    0.7927    1.2735 C.3       1 MOL        -0.0899
      7 C7         -3.6946   -1.5788    1.4553 C.3       1 MOL        -0.0899
      8 H1         -0.0349   -0.1510    0.0174 H         1 MOL         0.0330
      9 H2          0.0658   -1.3516   -1.2676 H         1 MOL         0.0330
     10 H3          0.5441    0.3260   -1.5875 H         1 MOL         0.0330
     11 H4         -1.7883    1.0915   -1.2770 H         1 MOL         0.0462
     12 H5         -2.8051    0.0349   -3.2887 H         1 MOL         0.0330
     13 H6         -1.0982    0.4337   -3.5508 H         1 MOL         0.0330
     14 H7         -1.5834   -1.2425   -3.2365 H         1 MOL         0.0330
     15 H8         -2.5022   -1.8697   -0.9376 H         1 MOL         0.0381
     16 H9         -3.6538   -0.5522   -1.0753 H         1 MOL         0.0381
     17 H10        -1.6708   -0.9509    1.2274 H         1 MOL         0.0462
     18 H11        -2.9093    0.8860    2.3636 H         1 MOL         0.0330
     19 H12        -2.1675    1.4786    0.8655 H         1 MOL         0.0330
     20 H13        -3.9025    1.1259    0.9285 H         1 MOL         0.0330
     21 H14        -3.7067   -1.4796    2.5460 H         1 MOL         0.0330
     22 H15        -4.6998   -1.3523    1.0835 H         1 MOL         0.0330
     23 H16        -3.4728   -2.6249    1.2191 H         1 MOL         0.0330
@<TRIPOS>BOND
     1    1    2 1
     2    2    3 1
     3    2    4 1
     4    4    5 1
     5    5    6 1
     6    5    7 1
     7    1    8 1
     8    1    9 1
     9    1   10 1
    10    2   11 1
    11    3   12 1
    12    3   13 1
    13    3   14 1
    14    4   15 1
    15    4   16 1
    16    5   17 1
    17    6   18 1
    18    6   19 1
    19    6   20 1
    20    7   21 1
    21    7   22 1
    22    7   23 1
