@<TRIPOS>MOLECULE
1,1,1-trimethoxyethane
   20    19     0     0     0
SMALL
USER_CHARGES

@<TRIPOS>ATOM
      1 C1          0.1455    0.0969    1.0817 C.3       1 MOL        -0.1125
      2 C2          1.2767   -0.8256    1.5627 C.3       1 MOL         0.5249
      3 O1          0.7476   -2.1652    1.4376 O.3       1 MOL        -0.4503
      4 C3          1.6591   -3.1800    1.8405 C.3       1 MOL         0.1337
      5 O2          1.6624   -0.5239    2.9156 O.3       1 MOL        -0.4503
      6 C4          0.6384   -0.6535    3.8916 C.3       1 MOL         0.1337
      7 O3          2.3997   -0.6802    0.6665 O.3       1 MOL        -0.4503
      8 C5          3.2139    0.4630    0.8887 C.3       1 MOL         0.1337
      9 H1          0.4341    1.1516    1.1317 H         1 MOL         0.0611
     10 H2         -0.1296   -0.1346    0.0466 H         1 MOL         0.0611
     11 H3         -0.7581   -0.0264    1.6890 H         1 MOL         0.0611
     12 H4          1.1874   -4.1554    1.7166 H         1 MOL         0.0394
     13 H5          1.9349   -3.0209    2.8837 H         1 MOL         0.0394
     14 H6          2.5483   -3.1198    1.2121 H         1 MOL         0.0394
     15 H7          1.0424   -0.4015    4.8734 H         1 MOL         0.0394
     16 H8          0.2645   -1.6788    3.8878 H         1 MOL         0.0394
     17 H9         -0.1724    0.0327    3.6425 H         1 MOL         0.0394
     18 H10         4.0263    0.4732    0.1606 H         1 MOL         0.0394
     19 H11         3.6145    0.4280    1.9031 H         1 MOL         0.0394
     20 H12         2.6020    1.3579    0.7671 H         1 MOL         0.0394
@<TRIPOS>BOND
     1    1    2 1
     2    2    3 1
     3    3    4 1
     4    2    5 1
     5    5    6 1
     6    2    7 1
     7    7    8 1
     8    1    9 1
     9    1   10 1
    10    1   11 1
    11    4   12 1
    12    4   13 1
    13    4   14 1
    14    6   15 1
    15    6   16 1
    16    6   17 1
    17    8   18 1
    18    8   19 1
    19    8   20 1
