@<TRIPOS>MOLECULE
nonane
   29    28     0     0     0
SMALL
USER_CHARGES

@<TRIPOS>ATOM
      1 C1          0.5002   -2.0147   -1.2894 C.3       1 MOL        -0.0924
      2 C2          0.8190   -1.9283    0.1951 C.3       1 MOL        -0.0798
      3 C3          2.0163   -2.7841    0.6139 C.3       1 MOL        -0.0795
      4 C4          2.3336   -2.6942    2.1083 C.3       1 MOL        -0.0783
      5 C5          3.5368   -3.5671    2.4727 C.3       1 MOL        -0.0786
      6 C6          3.8560   -3.4790    3.9661 C.3       1 MOL        -0.0783
      7 C7          5.0584   -4.3512    4.3307 C.3       1 MOL        -0.0795
      8 C8          5.3767   -4.2627    5.8230 C.3       1 MOL        -0.0798
      9 C9          6.5714   -5.1281    6.1905 C.3       1 MOL        -0.0924
     10 H1         -0.3609   -1.3885   -1.5440 H         1 MOL         0.0325
     11 H2          1.3563   -1.6687   -1.8777 H         1 MOL         0.0325
     12 H3          0.2839   -3.0427   -1.5943 H         1 MOL         0.0325
     13 H4          0.9934   -0.8817    0.4704 H         1 MOL         0.0383
     14 H5         -0.0599   -2.2622    0.7596 H         1 MOL         0.0383
     15 H6          1.7979   -3.8277    0.3556 H         1 MOL         0.0389
     16 H7          2.8981   -2.4925    0.0302 H         1 MOL         0.0389
     17 H8          1.4598   -3.0124    2.6897 H         1 MOL         0.0392
     18 H9          2.5480   -1.6558    2.3847 H         1 MOL         0.0392
     19 H10         3.3298   -4.6098    2.2026 H         1 MOL         0.0390
     20 H11         4.4104   -3.2491    1.8906 H         1 MOL         0.0390
     21 H12         4.0627   -2.4363    4.2366 H         1 MOL         0.0392
     22 H13         2.9819   -3.7965    4.5478 H         1 MOL         0.0392
     23 H14         5.9326   -4.0342    3.7492 H         1 MOL         0.0389
     24 H15         4.8515   -5.3939    4.0603 H         1 MOL         0.0389
     25 H16         5.5887   -3.2226    6.0973 H         1 MOL         0.0383
     26 H17         4.5071   -4.5823    6.4091 H         1 MOL         0.0383
     27 H18         6.7808   -5.0494    7.2619 H         1 MOL         0.0325
     28 H19         7.4667   -4.8129    5.6453 H         1 MOL         0.0325
     29 H20         6.3802   -6.1805    5.9582 H         1 MOL         0.0325
@<TRIPOS>BOND
     1    1    2 1
     2    2    3 1
     3    3    4 1
     4    4    5 1
     5    5    6 1
     6    6    7 1
     7    7    8 1
     8    8    9 1
     9    1   10 1
    10    1   11 1
    11    1   12 1
    12    2   13 1
    13    2   14 1
    14    3   15 1
    15    3   16 1
    16    4   17 1
    17    4   18 1
    18    5   19 1
    19    5   20 1
    20    6   21 1
    21    6   22 1
    22    7   23 1
    23    7   24 1
    24    8   25 1
    25    8   26 1
    26    9   27 1
    27    9   28 1
    28    9   29 1
