@<TRIPOS>MOLECULE
1,2,4-trimethylbenzene
   21    21     0     0     0
SMALL
USER_CHARGES

@<TRIPOS>ATOM
      1 C1          1.9308   -1.0141   -1.6028 C.3       1 MOL        -0.0521
      2 C2          1.8851   -1.0363   -0.1124 C.ar      1 MOL        -0.0794
      3 C3          2.9210   -1.6309    0.6081 C.ar      1 MOL        -0.1316
      4 C4          2.8783   -1.6520    2.0022 C.ar      1 MOL        -0.1258
      5 C5          1.7997   -1.0786    2.6757 C.ar      1 MOL        -0.0790
      6 C6          0.7638   -0.4841    1.9551 C.ar      1 MOL        -0.0715
      7 C7          0.8066   -0.4630    0.5610 C.ar      1 MOL        -0.1301
      8 C8         -0.4019    0.1344    2.6546 C.3       1 MOL        -0.0527
      9 C9          1.7748   -1.1152    4.1686 C.3       1 MOL        -0.0522
     10 H1          2.4386   -0.1084   -1.9484 H         1 MOL         0.0431
     11 H2          2.4636   -1.8886   -1.9907 H         1 MOL         0.0431
     12 H3          0.9207   -1.0368   -2.0252 H         1 MOL         0.0431
     13 H4          3.7652   -2.0798    0.0915 H         1 MOL         0.1301
     14 H5          3.6917   -2.1159    2.5542 H         1 MOL         0.1285
     15 H6         -0.0012   -0.0002   -0.0012 H         1 MOL         0.1286
     16 H7         -0.2025    1.1920    2.8625 H         1 MOL         0.0433
     17 H8         -1.3122    0.0631    2.0467 H         1 MOL         0.0433
     18 H9         -0.6107   -0.3753    3.6033 H         1 MOL         0.0433
     19 H10         2.2656   -0.2250    4.5785 H         1 MOL         0.0428
     20 H11         0.7459   -1.1528    4.5470 H         1 MOL         0.0428
     21 H12         2.2886   -2.0056    4.5517 H         1 MOL         0.0428
@<TRIPOS>BOND
     1    1    2 1
     2    2    7 ar
     3    2    3 ar
     4    3    4 ar
     5    4    5 ar
     6    5    6 ar
     7    6    7 ar
     8    6    8 1
     9    5    9 1
    10    1   10 1
    11    1   11 1
    12    1   12 1
    13    3   13 1
    14    4   14 1
    15    7   15 1
    16    8   16 1
    17    8   17 1
    18    8   18 1
    19    9   19 1
    20    9   20 1
    21    9   21 1
