@<TRIPOS>MOLECULE
1,1,2-trichloroethylene
    6     5     0     0     0
SMALL
USER_CHARGES

@<TRIPOS>ATOM
      1 C1         -0.2424    0.3060    0.5885 C.2       1 MOL        -0.0687
      2 C2          0.2375   -0.3834   -0.4499 C.2       1 MOL         0.0629
      3 Cl1         0.7818   -2.0179   -0.3331 Cl        1 MOL        -0.0515
      4 Cl2         0.3333    0.3690   -2.0054 Cl        1 MOL        -0.0515
      5 Cl3        -0.7978    1.9275    0.5399 Cl        1 MOL        -0.0655
      6 H1         -0.3287   -0.1033    1.5875 H         1 MOL         0.1744
@<TRIPOS>BOND
     1    1    2 2
     2    2    3 1
     3    2    4 1
     4    1    5 1
     5    1    6 1
