@<TRIPOS>MOLECULE
p-cresol
   16    16     0     0     0
SMALL
USER_CHARGES

@<TRIPOS>ATOM
      1 C1          1.9293   -1.0151   -1.6028 C.3       1 MOL        -0.0483
      2 C2          1.8851   -1.0363   -0.1124 C.ar      1 MOL        -0.1125
      3 C3          2.9210   -1.6309    0.6081 C.ar      1 MOL        -0.0949
      4 C4          2.8783   -1.6520    2.0022 C.ar      1 MOL        -0.1814
      5 C5          1.7997   -1.0786    2.6757 C.ar      1 MOL         0.1183
      6 C6          0.7638   -0.4841    1.9551 C.ar      1 MOL        -0.1814
      7 C7          0.8066   -0.4630    0.5610 C.ar      1 MOL        -0.0949
      8 O1          1.7576   -1.1000    4.0359 O.3       1 MOL        -0.4984
      9 H1          2.4361   -0.1094   -1.9495 H         1 MOL         0.0425
     10 H2          2.4622   -1.8896   -1.9906 H         1 MOL         0.0425
     11 H3          0.9187   -1.0388   -2.0241 H         1 MOL         0.0425
     12 H4          3.7658   -2.0790    0.0917 H         1 MOL         0.1332
     13 H5          3.6884   -2.1165    2.5581 H         1 MOL         0.1409
     14 H6         -0.0791   -0.0355    2.4742 H         1 MOL         0.1409
     15 H7         -0.0046    0.0033    0.0079 H         1 MOL         0.1332
     16 H8          0.9506   -0.6650    4.3543 H         1 MOL         0.4179
@<TRIPOS>BOND
     1    1    2 1
     2    2    7 ar
     3    2    3 ar
     4    3    4 ar
     5    4    5 ar
     6    5    6 ar
     7    6    7 ar
     8    5    8 1
     9    1    9 1
    10    1   10 1
    11    1   11 1
    12    3   12 1
    13    4   13 1
    14    6   14 1
    15    7   15 1
    16    8   16 1
