@<TRIPOS>MOLECULE
indane
   19    20     0     0     0
SMALL
USER_CHARGES

@<TRIPOS>ATOM
      1 C1         -0.9111   -1.1190    1.6051 C.ar      1 MOL        -0.1315
      2 C2         -0.1942   -0.9896    0.4048 C.ar      1 MOL        -0.1315
      3 C3          0.2780   -2.1186   -0.2681 C.ar      1 MOL        -0.1182
      4 C4          0.0095   -3.3646    0.2726 C.ar      1 MOL        -0.0875
      5 C5         -0.7058   -3.4937    1.4690 C.ar      1 MOL        -0.0875
      6 C6         -1.1666   -2.3794    2.1497 C.ar      1 MOL        -0.1182
      7 C7         -0.8216   -4.9308    1.8681 C.3       1 MOL        -0.0364
      8 C8         -0.5014   -5.6348    0.5408 C.3       1 MOL        -0.0805
      9 C9          0.4394   -4.7033   -0.2384 C.3       1 MOL        -0.0364
     10 H1         -1.2646   -0.2284    2.1177 H         1 MOL         0.1293
     11 H2         -0.0007   -0.0001   -0.0006 H         1 MOL         0.1293
     12 H3          0.8406   -2.0155   -1.1897 H         1 MOL         0.1318
     13 H4         -1.7100   -2.4763    3.0833 H         1 MOL         0.1318
     14 H5         -0.0763   -5.1709    2.6332 H         1 MOL         0.0536
     15 H6         -1.8225   -5.1884    2.2254 H         1 MOL         0.0536
     16 H7         -0.0739   -6.6313    0.6891 H         1 MOL         0.0456
     17 H8         -1.4315   -5.7645   -0.0301 H         1 MOL         0.0456
     18 H9          1.4860   -4.8884    0.0246 H         1 MOL         0.0536
     19 H10         0.2979   -4.8057   -1.3178 H         1 MOL         0.0536
@<TRIPOS>BOND
     1    1    6 ar
     2    1    2 ar
     3    2    3 ar
     4    3    4 ar
     5    4    9 1
     6    4    5 ar
     7    5    6 ar
     8    5    7 1
     9    7    8 1
    10    8    9 1
    11    1   10 1
    12    2   11 1
    13    3   12 1
    14    6   13 1
    15    7   14 1
    16    7   15 1
    17    8   16 1
    18    8   17 1
    19    9   18 1
    20    9   19 1
