@<TRIPOS>MOLECULE
penta-1,4-diene
   13    12     0     0     0
SMALL
USER_CHARGES

@<TRIPOS>ATOM
      1 C1          1.3367   -0.0832   -1.7937 C.2       1 MOL        -0.2202
      2 C2          1.2056   -0.3034   -0.4805 C.2       1 MOL        -0.1583
      3 C3         -0.0673   -0.7576    0.1704 C.3       1 MOL        -0.0274
      4 C4         -0.5498    0.2291    1.1919 C.2       1 MOL        -0.1583
      5 C5         -1.7343    0.8485    1.1322 C.2       1 MOL        -0.2202
      6 H1          2.2874    0.2387   -2.2044 H         1 MOL         0.1115
      7 H2          0.5059   -0.2177   -2.4773 H         1 MOL         0.1115
      8 H3          2.0733   -0.1589    0.1587 H         1 MOL         0.1183
      9 H4          0.1177   -1.7160    0.6698 H         1 MOL         0.0510
     10 H5         -0.8423   -0.9463   -0.5830 H         1 MOL         0.0510
     11 H6          0.1029    0.4384    2.0360 H         1 MOL         0.1183
     12 H7         -2.0280    1.5476    1.9076 H         1 MOL         0.1115
     13 H8         -2.4265    0.6725    0.3163 H         1 MOL         0.1115
@<TRIPOS>BOND
     1    1    2 2
     2    2    3 1
     3    3    4 1
     4    4    5 2
     5    1    6 1
     6    1    7 1
     7    2    8 1
     8    3    9 1
     9    3   10 1
    10    4   11 1
    11    5   12 1
    12    5   13 1
