@<TRIPOS>MOLECULE
dichloromethane
    5     4     0     0     0
SMALL
USER_CHARGES

@<TRIPOS>ATOM
      1 C1          0.1401   -0.0330    0.0343 C.3       1 MOL         0.1228
      2 Cl1        -0.5440   -0.1483   -1.5910 Cl        1 MOL        -0.1514
      3 Cl2        -1.0675    0.5282    1.1961 Cl        1 MOL        -0.1514
      4 H1          0.9746    0.6725    0.0198 H         1 MOL         0.0900
      5 H2          0.4968   -1.0194    0.3407 H         1 MOL         0.0900
@<TRIPOS>BOND
     1    1    2 1
     2    1    3 1
     3    1    4 1
     4    1    5 1
