@<TRIPOS>MOLECULE
2-methylhexane
   23    22     0     0     0
SMALL
USER_CHARGES

@<TRIPOS>ATOM
      1 C1         -0.5188    0.6341   -0.8646 C.3       1 MOL        -0.0916
      2 C2         -1.5688    1.5501   -0.2565 C.3       1 MOL        -0.0808
      3 C3         -2.6296    0.7568    0.5083 C.3       1 MOL        -0.0792
      4 C4         -3.6835    1.6862    1.1179 C.3       1 MOL        -0.0737
      5 C5         -4.7797    0.9408    1.9017 C.3       1 MOL        -0.0673
      6 C6         -4.1494    0.1528    3.0528 C.3       1 MOL        -0.0902
      7 C7         -5.8514    1.8847    2.4493 C.3       1 MOL        -0.0902
      8 H1          0.2288    1.2217   -1.4061 H         1 MOL         0.0328
      9 H2         -0.0027    0.0596   -0.0889 H         1 MOL         0.0328
     10 H3         -0.9727   -0.0702   -1.5691 H         1 MOL         0.0328
     11 H4         -2.0434    2.1330   -1.0543 H         1 MOL         0.0374
     12 H5         -1.0774    2.2617    0.4172 H         1 MOL         0.0374
     13 H6         -3.1049    0.0461   -0.1766 H         1 MOL         0.0395
     14 H7         -2.1493    0.1735    1.3031 H         1 MOL         0.0395
     15 H8         -3.1816    2.3892    1.7954 H         1 MOL         0.0388
     16 H9         -4.1406    2.2891    0.3227 H         1 MOL         0.0388
     17 H10        -5.2661    0.2220    1.2298 H         1 MOL         0.0448
     18 H11        -4.9092   -0.3877    3.6275 H         1 MOL         0.0331
     19 H12        -3.4265   -0.5780    2.6748 H         1 MOL         0.0331
     20 H13        -3.6179    0.8219    3.7377 H         1 MOL         0.0331
     21 H14        -6.6202    1.3345    3.0025 H         1 MOL         0.0331
     22 H15        -6.3444    2.4266    1.6348 H         1 MOL         0.0331
     23 H16        -5.4185    2.6338    3.1189 H         1 MOL         0.0331
@<TRIPOS>BOND
     1    1    2 1
     2    2    3 1
     3    3    4 1
     4    4    5 1
     5    5    6 1
     6    5    7 1
     7    1    8 1
     8    1    9 1
     9    1   10 1
    10    2   11 1
    11    2   12 1
    12    3   13 1
    13    3   14 1
    14    4   15 1
    15    4   16 1
    16    5   17 1
    17    6   18 1
    18    6   19 1
    19    6   20 1
    20    7   21 1
    21    7   22 1
    22    7   23 1
