@<TRIPOS>MOLECULE
oct-1-yne
   22    21     0     0     0
SMALL
USER_CHARGES

@<TRIPOS>ATOM
      1 C1          1.8181   -1.2743    2.9623 C.3       1 MOL        -0.0938
      2 C2          1.2932   -1.4707    1.5489 C.3       1 MOL        -0.0798
      3 C3          0.5507   -0.2314    1.0499 C.3       1 MOL        -0.0790
      4 C4          0.0244   -0.4332   -0.3721 C.3       1 MOL        -0.0791
      5 C5         -0.7189    0.8070   -0.8718 C.3       1 MOL        -0.0724
      6 C6         -1.2450    0.6057   -2.2929 C.3       1 MOL        -0.0050
      7 C7         -1.9579    1.7996   -2.7679 C.1       1 MOL        -0.1337
      8 C8         -2.5417    2.7732   -3.1587 C.1       1 MOL        -0.1666
      9 H1          2.3481   -2.1661    3.3114 H         1 MOL         0.0323
     10 H2          0.9895   -1.0808    3.6507 H         1 MOL         0.0323
     11 H3          2.5061   -0.4242    3.0107 H         1 MOL         0.0323
     12 H4          2.1333   -1.6956    0.8816 H         1 MOL         0.0383
     13 H5          0.6236   -2.3385    1.5315 H         1 MOL         0.0383
     14 H6          1.2238    0.6342    1.0733 H         1 MOL         0.0399
     15 H7         -0.2860   -0.0083    1.7233 H         1 MOL         0.0399
     16 H8         -0.6487   -1.2988   -0.3951 H         1 MOL         0.0438
     17 H9          0.8613   -0.6559   -1.0452 H         1 MOL         0.0438
     18 H10        -1.5535    1.0329   -0.1958 H         1 MOL         0.0443
     19 H11        -0.0473    1.6747   -0.8443 H         1 MOL         0.0443
     20 H12        -1.9196   -0.2579   -2.3204 H         1 MOL         0.0585
     21 H13        -0.4116    0.3844   -2.9699 H         1 MOL         0.0585
     22 H14        -3.0605    3.6364   -3.5044 H         1 MOL         0.1628
@<TRIPOS>BOND
     1    1    2 1
     2    2    3 1
     3    3    4 1
     4    4    5 1
     5    5    6 1
     6    6    7 1
     7    7    8 3
     8    1    9 1
     9    1   10 1
    10    1   11 1
    11    2   12 1
    12    2   13 1
    13    3   14 1
    14    3   15 1
    15    4   16 1
    16    4   17 1
    17    5   18 1
    18    5   19 1
    19    6   20 1
    20    6   21 1
    21    8   22 1
