@<TRIPOS>MOLECULE
tert-butylbenzene
   24    24     0     0     0
SMALL
USER_CHARGES

@<TRIPOS>ATOM
      1 C1         -1.0055    0.0255   -0.4341 C.3       1 MOL        -0.0857
      2 C2         -2.0904    0.3299    0.6216 C.3       1 MOL        -0.0097
      3 C3         -1.7775    1.6835    1.2954 C.3       1 MOL        -0.0857
      4 C4         -3.4286    0.4950   -0.1338 C.3       1 MOL        -0.0857
      5 C5         -2.1077   -0.7840    1.6815 C.ar      1 MOL        -0.0630
      6 C6         -3.2652   -1.5357    1.8842 C.ar      1 MOL        -0.1282
      7 C7         -3.2812   -2.5461    2.8457 C.ar      1 MOL        -0.1305
      8 C8         -2.1398   -2.8048    3.6045 C.ar      1 MOL        -0.1337
      9 C9         -0.9823   -2.0532    3.4018 C.ar      1 MOL        -0.1305
     10 C10        -0.9663   -1.0428    2.4403 C.ar      1 MOL        -0.1282
     11 H1         -1.1973   -0.9314   -0.9335 H         1 MOL         0.0367
     12 H2         -0.9617    0.7913   -1.2163 H         1 MOL         0.0367
     13 H3         -0.0121   -0.0317    0.0264 H         1 MOL         0.0367
     14 H4         -2.5193    1.9491    2.0564 H         1 MOL         0.0367
     15 H5         -0.8014    1.6605    1.7942 H         1 MOL         0.0367
     16 H6         -1.7566    2.4953    0.5588 H         1 MOL         0.0367
     17 H7         -4.2493    0.7145    0.5597 H         1 MOL         0.0367
     18 H8         -3.3865    1.3206   -0.8538 H         1 MOL         0.0367
     19 H9         -3.7011   -0.4179   -0.6762 H         1 MOL         0.0367
     20 H10        -4.1591   -1.3405    1.2977 H         1 MOL         0.1309
     21 H11        -4.1824   -3.1314    3.0033 H         1 MOL         0.1294
     22 H12        -2.1519   -3.5916    4.3532 H         1 MOL         0.1302
     23 H13        -0.0938   -2.2543    3.9930 H         1 MOL         0.1294
     24 H14        -0.0597   -0.4628    2.2894 H         1 MOL         0.1309
@<TRIPOS>BOND
     1    1    2 1
     2    2    3 1
     3    2    4 1
     4    2    5 1
     5    5   10 ar
     6    5    6 ar
     7    6    7 ar
     8    7    8 ar
     9    8    9 ar
    10    9   10 ar
    11    1   11 1
    12    1   12 1
    13    1   13 1
    14    3   14 1
    15    3   15 1
    16    3   16 1
    17    4   17 1
    18    4   18 1
    19    4   19 1
    20    6   20 1
    21    7   21 1
    22    8   22 1
    23    9   23 1
    24   10   24 1
