@<TRIPOS>MOLECULE
1,3-dichloro-2-(2,6-dichlorophenyl)benzene
   22    23     0     0     0
SMALL
USER_CHARGES

@<TRIPOS>ATOM
      1 C1          1.8851   -1.0363   -0.1124 C.ar      1 MOL        -0.1062
      2 C2          2.9210   -1.6309    0.6081 C.ar      1 MOL        -0.1289
      3 C3          2.8783   -1.6520    2.0022 C.ar      1 MOL         0.0493
      4 C4          1.7997   -1.0786    2.6757 C.ar      1 MOL        -0.0349
      5 C5          0.7638   -0.4841    1.9551 C.ar      1 MOL         0.0493
      6 C6          0.8066   -0.4630    0.5610 C.ar      1 MOL        -0.1289
      7 Cl1        -0.6017    0.2450    2.7295 Cl        1 MOL        -0.0733
      8 C7          1.7551   -1.1008    4.1301 C.ar      1 MOL        -0.0349
      9 C8          1.1508   -2.1692    4.7928 C.ar      1 MOL         0.0493
     10 C9          1.1085   -2.1910    6.1869 C.ar      1 MOL        -0.1289
     11 C10         1.6703   -1.1445    6.9182 C.ar      1 MOL        -0.1060
     12 C11         2.2745   -0.0762    6.2554 C.ar      1 MOL        -0.1289
     13 C12         2.3168   -0.0543    4.8614 C.ar      1 MOL         0.0493
     14 Cl2         3.0824    1.2989    4.1004 Cl        1 MOL        -0.0733
     15 Cl3         0.4348   -3.4981    3.9457 Cl        1 MOL        -0.0733
     16 Cl4         4.1947   -2.4049    2.8365 Cl        1 MOL        -0.0733
     17 H1          1.9183   -1.0198   -1.1979 H         1 MOL         0.1426
     18 H2          3.7537   -2.0729    0.0668 H         1 MOL         0.1522
     19 H3          0.0079   -0.0042   -0.0166 H         1 MOL         0.1522
     20 H4          0.6426   -3.0157    6.7205 H         1 MOL         0.1522
     21 H5          1.6366   -1.1619    8.0036 H         1 MOL         0.1426
     22 H6          2.7054    0.7323    6.8408 H         1 MOL         0.1522
@<TRIPOS>BOND
     1    1    6 ar
     2    1    2 ar
     3    2    3 ar
     4    3    4 ar
     5    4    5 ar
     6    5    6 ar
     7    5    7 1
     8    4    8 1
     9    8   13 ar
    10    8    9 ar
    11    9   10 ar
    12   10   11 ar
    13   11   12 ar
    14   12   13 ar
    15   13   14 1
    16    9   15 1
    17    3   16 1
    18    1   17 1
    19    2   18 1
    20    6   19 1
    21   10   20 1
    22   11   21 1
    23   12   22 1
