@<TRIPOS>MOLECULE
1,1-dichloroethane
    8     7     0     0     0
SMALL
USER_CHARGES

@<TRIPOS>ATOM
      1 C1         -0.4712    0.6837    0.7145 C.3       1 MOL        -0.1122
      2 C2         -0.0877    0.3252    2.1389 C.3       1 MOL         0.1561
      3 Cl1        -0.8870    1.4225    3.2882 Cl        1 MOL        -0.1627
      4 Cl2         1.6769    0.4133    2.3441 Cl        1 MOL        -0.1627
      5 H1          0.0087    0.0215   -0.0149 H         1 MOL         0.0625
      6 H2         -1.5550    0.6109    0.5724 H         1 MOL         0.0625
      7 H3         -0.1776    1.7126    0.4791 H         1 MOL         0.0625
      8 H4         -0.4016   -0.6948    2.3770 H         1 MOL         0.0941
@<TRIPOS>BOND
     1    1    2 1
     2    2    3 1
     3    2    4 1
     4    1    5 1
     5    1    6 1
     6    1    7 1
     7    2    8 1
