@<TRIPOS>MOLECULE
4-nitroaniline
   16    16     0     0     0
SMALL
USER_CHARGES

@<TRIPOS>ATOM
      1 C1          1.8851   -1.0363   -0.1124 C.ar      1 MOL        -0.2259
      2 C2          2.9210   -1.6309    0.6081 C.ar      1 MOL        -0.0157
      3 C3          2.8783   -1.6520    2.0022 C.ar      1 MOL        -0.2444
      4 C4          1.7997   -1.0786    2.6757 C.ar      1 MOL        -0.0157
      5 C5          0.7638   -0.4841    1.9551 C.ar      1 MOL        -0.2259
      6 C6          0.8066   -0.4630    0.5610 C.ar      1 MOL         0.2246
      7 N1         -0.2413    0.1370   -0.1676 N.pl3     1 MOL        -0.8519
      8 N2          3.9336   -2.2560    2.7355 N.pl3     1 MOL         0.3230
      9 O1          4.8951   -2.7648    2.1101 O.2       1 MOL        -0.2207
     10 O2          3.8762   -2.2641    3.9889 O.2       1 MOL        -0.2207
     11 H1          1.9288   -1.0263   -1.1986 H         1 MOL         0.1444
     12 H2          3.7559   -2.0741    0.0708 H         1 MOL         0.1683
     13 H3          1.7548   -1.0887    3.7619 H         1 MOL         0.1683
     14 H4         -0.0716   -0.0401    2.4906 H         1 MOL         0.1444
     15 H5         -0.1762    0.1875   -1.1642 H         1 MOL         0.4239
     16 H6         -0.9856    0.5851    0.3277 H         1 MOL         0.4239
@<TRIPOS>BOND
     1    1    6 ar
     2    1    2 ar
     3    2    3 ar
     4    3    4 ar
     5    4    5 ar
     6    5    6 ar
     7    6    7 1
     8    3    8 1
     9    8    9 2
    10    8   10 2
    11    1   11 1
    12    2   12 1
    13    4   13 1
    14    5   14 1
    15    7   15 1
    16    7   16 1
