@<TRIPOS>MOLECULE
1,4-dimethylpiperazine
   22    22     0     0     0
SMALL
USER_CHARGES

@<TRIPOS>ATOM
      1 C1          1.8318    0.0009    1.9360 C.3       1 MOL         0.1528
      2 N1          1.6130   -1.0119    0.9052 N.3       1 MOL        -0.7242
      3 C2          2.8769   -1.6606    0.5350 C.3       1 MOL         0.1628
      4 C3          2.6493   -2.7208   -0.5481 C.3       1 MOL         0.1628
      5 N2          2.0113   -2.1302   -1.7310 N.3       1 MOL        -0.7242
      6 C4          0.7469   -1.4824   -1.3611 C.3       1 MOL         0.1628
      7 C5          0.9733   -0.4226   -0.2775 C.3       1 MOL         0.1628
      8 C6          1.7938   -3.1419   -2.7630 C.3       1 MOL         0.1528
      9 H1          2.3081   -0.4499    2.8105 H         1 MOL         0.0320
     10 H2          0.8787    0.4408    2.2419 H         1 MOL         0.0320
     11 H3          2.4780    0.7957    1.5538 H         1 MOL         0.0320
     12 H4          3.6076   -0.9212    0.1800 H         1 MOL         0.0375
     13 H5          3.3116   -2.1530    1.4133 H         1 MOL         0.0375
     14 H6          3.6222   -3.1450   -0.8247 H         1 MOL         0.0375
     15 H7          2.0398   -3.5393   -0.1414 H         1 MOL         0.0375
     16 H8          0.3122   -0.9898   -2.2394 H         1 MOL         0.0375
     17 H9          0.0164   -2.2224   -1.0068 H         1 MOL         0.0375
     18 H10         1.5814    0.3969   -0.6843 H         1 MOL         0.0375
     19 H11         0.0001    0.0004   -0.0003 H         1 MOL         0.0375
     20 H12         1.3223   -2.6733   -3.6206 H         1 MOL         0.0320
     21 H13         1.1505   -3.9202   -2.3653 H         1 MOL         0.0320
     22 H14         2.7507   -3.5649   -3.0510 H         1 MOL         0.0320
@<TRIPOS>BOND
     1    1    2 1
     2    2    7 1
     3    2    3 1
     4    3    4 1
     5    4    5 1
     6    5    6 1
     7    6    7 1
     8    5    8 1
     9    1    9 1
    10    1   10 1
    11    1   11 1
    12    3   12 1
    13    3   13 1
    14    4   14 1
    15    4   15 1
    16    6   16 1
    17    6   17 1
    18    7   18 1
    19    7   19 1
    20    8   20 1
    21    8   21 1
    22    8   22 1
