@<TRIPOS>MOLECULE
(2R)-1,1,1-trifluoropropan-2-ol
   12    11     0     0     0
SMALL
USER_CHARGES

@<TRIPOS>ATOM
      1 C1         -0.7763    0.5918    0.8349 C.3       1 MOL        -0.1399
      2 C2         -0.2372   -0.1769   -0.3621 C.3       1 MOL         0.1107
      3 H1         -0.9249   -0.9878   -0.6244 H         1 MOL         0.0706
      4 C3          1.1381   -0.7496   -0.0933 C.3       1 MOL         0.6342
      5 F1          1.1124   -1.6013    0.9554 F         1 MOL        -0.2326
      6 F2          1.5904   -1.4392   -1.1640 F         1 MOL        -0.2326
      7 F3          2.0364    0.2193    0.1835 F         1 MOL        -0.2326
      8 O1         -0.1452    0.6998   -1.4804 O.3       1 MOL        -0.5834
      9 H2         -0.1017    1.4088    1.1138 H         1 MOL         0.0624
     10 H3         -0.9132   -0.0628    1.7007 H         1 MOL         0.0624
     11 H4         -1.7404    1.0513    0.5914 H         1 MOL         0.0624
     12 H5         -1.0427    1.0253   -1.6523 H         1 MOL         0.4186
@<TRIPOS>BOND
     1    1    2 1
     2    2    3 1
     3    2    4 1
     4    4    5 1
     5    4    6 1
     6    4    7 1
     7    2    8 1
     8    1    9 1
     9    1   10 1
    10    1   11 1
    11    8   12 1
