@<TRIPOS>MOLECULE
1,4-dibromobenzene
   12    12     0     0     0
SMALL
USER_CHARGES

@<TRIPOS>ATOM
      1 C1          1.8851   -1.0363   -0.1124 C.ar      1 MOL        -0.1044
      2 C2          2.9210   -1.6309    0.6081 C.ar      1 MOL        -0.1044
      3 C3          2.8783   -1.6520    2.0022 C.ar      1 MOL        -0.0169
      4 C4          1.7997   -1.0786    2.6757 C.ar      1 MOL        -0.1044
      5 C5          0.7638   -0.4841    1.9551 C.ar      1 MOL        -0.1044
      6 C6          0.8066   -0.4630    0.5610 C.ar      1 MOL        -0.0169
      7 Br1        -0.5965    0.3430   -0.4154 Br        1 MOL        -0.0779
      8 Br2         4.2818   -2.4575    2.9784 Br        1 MOL        -0.0779
      9 H1          1.9330   -1.0282   -1.1982 H         1 MOL         0.1517
     10 H2          3.7545   -2.0731    0.0687 H         1 MOL         0.1517
     11 H3          1.7516   -1.0871    3.7615 H         1 MOL         0.1517
     12 H4         -0.0695   -0.0417    2.4944 H         1 MOL         0.1517
@<TRIPOS>BOND
     1    1    6 ar
     2    1    2 ar
     3    2    3 ar
     4    3    4 ar
     5    4    5 ar
     6    5    6 ar
     7    6    7 1
     8    3    8 1
     9    1    9 1
    10    2   10 1
    11    4   11 1
    12    5   12 1
