@<TRIPOS>MOLECULE
methylsulfinylmethane
   10     9     0     0     0
SMALL
USER_CHARGES

@<TRIPOS>ATOM
      1 C1          0.8446   -0.5678    0.4099 C.3       1 MOL        -0.1305
      2 S1          0.8616   -0.5489    2.2956 S.o       1 MOL         0.2710
      3 O1          2.1874   -1.1423    2.6713 O.2       1 MOL        -0.5071
      4 C2          1.0227    1.2504    2.4101 C.3       1 MOL        -0.1305
      5 H1         -0.0983   -0.1470    0.0541 H         1 MOL         0.0829
      6 H2          0.9451   -1.5986    0.0637 H         1 MOL         0.0829
      7 H3          1.6806    0.0301    0.0410 H         1 MOL         0.0829
      8 H4          1.0569    1.5391    3.4617 H         1 MOL         0.0829
      9 H5          0.1627    1.7125    1.9234 H         1 MOL         0.0829
     10 H6          1.9428    1.5539    1.9089 H         1 MOL         0.0829
@<TRIPOS>BOND
     1    1    2 1
     2    2    3 2
     3    2    4 1
     4    1    5 1
     5    1    6 1
     6    1    7 1
     7    4    8 1
     8    4    9 1
     9    4   10 1
