@<TRIPOS>MOLECULE
methoxyethane
   12    11     0     0     0
SMALL
USER_CHARGES

@<TRIPOS>ATOM
      1 C1          1.0616   -0.2681   -0.0006 C.3       1 MOL        -0.0971
      2 C2          1.9101    0.9126   -0.4220 C.3       1 MOL         0.1256
      3 O1          1.5170    1.3236   -1.7228 O.3       1 MOL        -0.4187
      4 C3          2.2819    2.4338   -2.1743 C.3       1 MOL         0.1151
      5 H1          1.3393   -0.6108    1.0001 H         1 MOL         0.0448
      6 H2         -0.0000   -0.0002   -0.0006 H         1 MOL         0.0448
      7 H3          1.1801   -1.0990   -0.7040 H         1 MOL         0.0448
      8 H4          2.9684    0.6361   -0.4446 H         1 MOL         0.0220
      9 H5          1.7730    1.7499    0.2687 H         1 MOL         0.0220
     10 H6          1.9490    2.7166   -3.1738 H         1 MOL         0.0323
     11 H7          3.3379    2.1605   -2.1890 H         1 MOL         0.0323
     12 H8          2.1280    3.2668   -1.4873 H         1 MOL         0.0323
@<TRIPOS>BOND
     1    1    2 1
     2    2    3 1
     3    3    4 1
     4    1    5 1
     5    1    6 1
     6    1    7 1
     7    2    8 1
     8    2    9 1
     9    4   10 1
    10    4   11 1
    11    4   12 1
