@<TRIPOS>MOLECULE
hydrazine
    6     5     0     0     0
SMALL
USER_CHARGES

@<TRIPOS>ATOM
      1 N1         -0.8077    0.5696   -0.2485 N.3       1 MOL        -0.6707
      2 N2         -1.9600   -0.2578   -0.3168 N.3       1 MOL        -0.6707
      3 H1         -0.9050    1.2118    0.5366 H         1 MOL         0.3353
      4 H2          0.0076   -0.0069   -0.0444 H         1 MOL         0.3353
      5 H3         -2.7887    0.3283   -0.4092 H         1 MOL         0.3353
      6 H4         -2.0639   -0.7574    0.5652 H         1 MOL         0.3353
@<TRIPOS>BOND
     1    1    2 1
     2    1    3 1
     3    1    4 1
     4    2    5 1
     5    2    6 1
