@<TRIPOS>MOLECULE
piperidine
   17    17     0     0     0
SMALL
USER_CHARGES

@<TRIPOS>ATOM
      1 C1          0.5789    0.0384   -1.3659 C.3       1 MOL        -0.0769
      2 C2          0.4799    1.2871   -0.4951 C.3       1 MOL        -0.0763
      3 C3         -0.6602    1.1695    0.5144 C.3       1 MOL         0.1603
      4 N1         -0.5273   -0.0351    1.3347 N.3       1 MOL        -0.8137
      5 C4         -0.5084   -1.2445    0.5109 C.3       1 MOL         0.1603
      6 C5          0.6371   -1.2155   -0.4991 C.3       1 MOL        -0.0763
      7 H1          1.4660    0.0952   -2.0061 H         1 MOL         0.0387
      8 H2         -0.2941   -0.0153   -2.0279 H         1 MOL         0.0387
      9 H3          1.4283    1.4378    0.0360 H         1 MOL         0.0459
     10 H4          0.3251    2.1679   -1.1284 H         1 MOL         0.0459
     11 H5         -0.6601    2.0474    1.1697 H         1 MOL         0.0258
     12 H6         -1.6278    1.1630   -0.0019 H         1 MOL         0.0258
     13 H7         -1.3187   -0.0859    1.9768 H         1 MOL         0.3587
     14 H8         -0.3978   -2.1172    1.1638 H         1 MOL         0.0258
     15 H9         -1.4694   -1.3580   -0.0052 H         1 MOL         0.0258
     16 H10         1.5971   -1.2483    0.0315 H         1 MOL         0.0459
     17 H11         0.5931   -2.1068   -1.1351 H         1 MOL         0.0459
@<TRIPOS>BOND
     1    1    6 1
     2    1    2 1
     3    2    3 1
     4    3    4 1
     5    4    5 1
     6    5    6 1
     7    1    7 1
     8    1    8 1
     9    2    9 1
    10    2   10 1
    11    3   11 1
    12    3   12 1
    13    4   13 1
    14    5   14 1
    15    5   15 1
    16    6   16 1
    17    6   17 1
