@<TRIPOS>MOLECULE
2,6-dichloro-4-hydroxy-3,5-dimethoxy-benzaldehyde
   23    23     0     0     0
SMALL
USER_CHARGES

@<TRIPOS>ATOM
      1 C1          2.5868    0.0900   -2.0807 C.3       1 MOL         0.1104
      2 O1          1.9449   -1.0265   -1.4758 O.3       1 MOL        -0.3253
      3 C2          1.8851   -1.0363   -0.1124 C.ar      1 MOL         0.0396
      4 C3          2.9210   -1.6309    0.6081 C.ar      1 MOL         0.1371
      5 C4          2.8783   -1.6520    2.0022 C.ar      1 MOL         0.0396
      6 C5          1.7997   -1.0786    2.6757 C.ar      1 MOL         0.0660
      7 C6          0.7638   -0.4841    1.9551 C.ar      1 MOL        -0.1973
      8 C7          0.8066   -0.4630    0.5610 C.ar      1 MOL         0.0660
      9 Cl1        -0.4725    0.2680   -0.3528 Cl        1 MOL        -0.0472
     10 C8         -0.3674    0.1167    2.6612 C.2       1 MOL         0.5856
     11 O2         -0.6624    1.3057    2.5555 O.2       1 MOL        -0.4920
     12 Cl2         1.7661   -1.1130    4.4084 Cl        1 MOL        -0.0472
     13 O3          3.9011   -2.2390    2.6896 O.3       1 MOL        -0.3253
     14 C9          4.9987   -1.4050    3.0503 C.3       1 MOL         0.1104
     15 O4          3.9760   -2.1907   -0.0503 O.3       1 MOL        -0.4711
     16 H1          2.5678   -0.0226   -3.1674 H         1 MOL         0.0484
     17 H2          3.6194    0.1527   -1.7282 H         1 MOL         0.0484
     18 H3          2.0526    1.0013   -1.8017 H         1 MOL         0.0484
     19 H4         -0.9661   -0.5508    3.3122 H         1 MOL         0.0204
     20 H5          5.7354   -1.9997    3.5897 H         1 MOL         0.0484
     21 H6          4.6356   -0.5886    3.6744 H         1 MOL         0.0484
     22 H7          5.4430   -1.0043    2.1396 H         1 MOL         0.0484
     23 H8          3.8600   -2.0953   -1.0082 H         1 MOL         0.4399
@<TRIPOS>BOND
     1    1    2 1
     2    2    3 1
     3    3    8 ar
     4    3    4 ar
     5    4    5 ar
     6    5    6 ar
     7    6    7 ar
     8    7    8 ar
     9    8    9 1
    10    7   10 1
    11   10   11 2
    12    6   12 1
    13    5   13 1
    14   13   14 1
    15    4   15 1
    16    1   16 1
    17    1   17 1
    18    1   18 1
    19   10   19 1
    20   14   20 1
    21   14   21 1
    22   14   22 1
    23   15   23 1
