@<TRIPOS>MOLECULE
2,6-dimethoxyphenol
   21    21     0     0     0
SMALL
USER_CHARGES

@<TRIPOS>ATOM
      1 C1          1.3515   -2.1280   -2.1493 C.3       1 MOL         0.1206
      2 O1          1.9393   -1.0225   -1.4736 O.3       1 MOL        -0.3398
      3 C2          1.8851   -1.0363   -0.1124 C.ar      1 MOL         0.0663
      4 C3          2.9210   -1.6309    0.6081 C.ar      1 MOL        -0.1541
      5 C4          2.8783   -1.6520    2.0022 C.ar      1 MOL        -0.1259
      6 C5          1.7997   -1.0786    2.6757 C.ar      1 MOL        -0.1541
      7 C6          0.7638   -0.4841    1.9551 C.ar      1 MOL         0.0663
      8 C7          0.8066   -0.4630    0.5610 C.ar      1 MOL         0.1019
      9 O2         -0.2060    0.1181   -0.1433 O.3       1 MOL        -0.4803
     10 O3         -0.2837    0.0722    2.6252 O.3       1 MOL        -0.3398
     11 C8         -0.2495    0.0077    4.0496 C.3       1 MOL         0.1206
     12 H1          1.4610   -1.9966   -3.2285 H         1 MOL         0.0433
     13 H2          0.2931   -2.1966   -1.8854 H         1 MOL         0.0433
     14 H3          1.8615   -3.0442   -1.8425 H         1 MOL         0.0433
     15 H4          3.7641   -2.0793    0.0897 H         1 MOL         0.1434
     16 H5          3.6848   -2.1148    2.5633 H         1 MOL         0.1374
     17 H6          1.7726   -1.0985    3.7618 H         1 MOL         0.1434
     18 H7         -0.8765    0.4685    0.4632 H         1 MOL         0.4346
     19 H8         -1.1426    0.4876    4.4479 H         1 MOL         0.0433
     20 H9          0.6479    0.5122    4.4062 H         1 MOL         0.0433
     21 H10        -0.2284   -1.0399    4.3471 H         1 MOL         0.0433
@<TRIPOS>BOND
     1    1    2 1
     2    2    3 1
     3    3    8 ar
     4    3    4 ar
     5    4    5 ar
     6    5    6 ar
     7    6    7 ar
     8    7    8 ar
     9    8    9 1
    10    7   10 1
    11   10   11 1
    12    1   12 1
    13    1   13 1
    14    1   14 1
    15    4   15 1
    16    5   16 1
    17    6   17 1
    18    9   18 1
    19   11   19 1
    20   11   20 1
    21   11   21 1
