@<TRIPOS>MOLECULE
(3R)-2,3-dimethylpentane
   23    22     0     0     0
SMALL
USER_CHARGES

@<TRIPOS>ATOM
      1 C1          2.9897    0.4170   -0.2076 C.3       1 MOL        -0.0923
      2 C2          1.6568   -0.3175   -0.2214 C.3       1 MOL        -0.0771
      3 C3          0.4243    0.6095   -0.1250 C.3       1 MOL        -0.0577
      4 H1          0.4622    1.2819   -0.9938 H         1 MOL         0.0425
      5 C4         -0.8441   -0.2415   -0.2804 C.3       1 MOL        -0.0908
      6 C5          0.3987    1.5035    1.1480 C.3       1 MOL        -0.0612
      7 C6         -0.8243    2.4201    1.2390 C.3       1 MOL        -0.0900
      8 C7          0.5143    0.6742    2.4328 C.3       1 MOL        -0.0900
      9 H2          3.8131   -0.3013   -0.2787 H         1 MOL         0.0327
     10 H3          3.0805    1.1031   -1.0544 H         1 MOL         0.0327
     11 H4          3.1164    0.9857    0.7189 H         1 MOL         0.0327
     12 H5          1.6456   -1.0059    0.6336 H         1 MOL         0.0384
     13 H6          1.5986   -0.9454   -1.1180 H         1 MOL         0.0384
     14 H7         -1.7498    0.3684   -0.2197 H         1 MOL         0.0334
     15 H8         -0.8550   -0.7821   -1.2318 H         1 MOL         0.0334
     16 H9         -0.9072   -0.9855    0.5218 H         1 MOL         0.0334
     17 H10         1.2876    2.1463    1.1238 H         1 MOL         0.0438
     18 H11        -0.8030    3.0299    2.1467 H         1 MOL         0.0330
     19 H12        -1.7447    1.8263    1.2714 H         1 MOL         0.0330
     20 H13        -0.8958    3.0896    0.3762 H         1 MOL         0.0330
     21 H14         0.4936    1.3277    3.3119 H         1 MOL         0.0330
     22 H15         1.4570    0.1180    2.4563 H         1 MOL         0.0330
     23 H16        -0.3102   -0.0382    2.5359 H         1 MOL         0.0330
@<TRIPOS>BOND
     1    1    2 1
     2    2    3 1
     3    3    4 1
     4    3    5 1
     5    3    6 1
     6    6    7 1
     7    6    8 1
     8    1    9 1
     9    1   10 1
    10    1   11 1
    11    2   12 1
    12    2   13 1
    13    5   14 1
    14    5   15 1
    15    5   16 1
    16    6   17 1
    17    7   18 1
    18    7   19 1
    19    7   20 1
    20    8   21 1
    21    8   22 1
    22    8   23 1
