@<TRIPOS>MOLECULE
methyl cyclopropanecarboxylate
   15    15     0     0     0
SMALL
USER_CHARGES

@<TRIPOS>ATOM
      1 C1         -3.6262    0.6760    2.2598 C.3       1 MOL         0.1254
      2 O1         -2.6771    0.5474    1.1964 O.3       1 MOL        -0.4376
      3 C2         -1.8735   -0.5523    1.2582 C.2       1 MOL         0.6575
      4 O2         -1.8925   -1.4181    2.1226 O.2       1 MOL        -0.5365
      5 C3         -0.9373   -0.5552    0.0879 C.3       1 MOL        -0.1901
      6 C4          0.3322    0.2163    0.1982 C.3       1 MOL        -0.1078
      7 C5          0.3559   -1.2828    0.2194 C.3       1 MOL        -0.1078
      8 H1         -4.2156    1.5847    2.1153 H         1 MOL         0.0498
      9 H2         -3.0994    0.7188    3.2164 H         1 MOL         0.0498
     10 H3         -4.2903   -0.1916    2.2504 H         1 MOL         0.0498
     11 H4         -1.4460   -0.5767   -0.8555 H         1 MOL         0.1144
     12 H5          0.7364    0.7134   -0.6752 H         1 MOL         0.0833
     13 H6          0.5091    0.7369    1.1314 H         1 MOL         0.0833
     14 H7          0.7757   -1.7917   -0.6398 H         1 MOL         0.0833
     15 H8          0.5485   -1.7711    1.1670 H         1 MOL         0.0833
@<TRIPOS>BOND
     1    1    2 1
     2    2    3 1
     3    3    4 2
     4    3    5 1
     5    5    7 1
     6    5    6 1
     7    6    7 1
     8    1    8 1
     9    1    9 1
    10    1   10 1
    11    5   11 1
    12    6   12 1
    13    6   13 1
    14    7   14 1
    15    7   15 1
