@<TRIPOS>MOLECULE
(1R,2S,5R)-2-isopropyl-5-methyl-cyclohexanol
   31    31     0     0     0
SMALL
USER_CHARGES

@<TRIPOS>ATOM
      1 C1          0.7606   -1.4084    2.2528 C.3       1 MOL        -0.0910
      2 C2          0.9280    0.0809    1.9574 C.3       1 MOL        -0.0616
      3 H1          0.0671    0.6092    2.3887 H         1 MOL         0.0486
      4 C3          0.9445    0.3348    0.4454 C.3       1 MOL        -0.0756
      5 C4          1.1545    1.8131    0.1249 C.3       1 MOL        -0.0778
      6 C5          2.4292    2.3633    0.7777 C.3       1 MOL        -0.0496
      7 H2          3.2985    1.8541    0.3392 H         1 MOL         0.0598
      8 C6          2.4235    2.1034    2.2931 C.3       1 MOL         0.1434
      9 H3          1.6377    2.7023    2.7699 H         1 MOL         0.0348
     10 C7          2.2039    0.6223    2.6097 C.3       1 MOL        -0.1096
     11 O1          3.6723    2.5114    2.8465 O.3       1 MOL        -0.6031
     12 C8          2.5831    3.8547    0.4675 C.3       1 MOL        -0.0640
     13 C9          2.6731    4.0793   -1.0389 C.3       1 MOL        -0.0894
     14 C10         1.4224    4.6454    1.0632 C.3       1 MOL        -0.0894
     15 H4          1.5984   -1.9785    1.8404 H         1 MOL         0.0345
     16 H5          0.7220   -1.5844    3.3319 H         1 MOL         0.0345
     17 H6         -0.1651   -1.7866    1.8086 H         1 MOL         0.0345
     18 H7          1.7430   -0.2534   -0.0247 H         1 MOL         0.0421
     19 H8         -0.0002    0.0001    0.0001 H         1 MOL         0.0421
     20 H9          1.2072    1.9411   -0.9631 H         1 MOL         0.0440
     21 H10         0.2826    2.3838    0.4691 H         1 MOL         0.0440
     22 H11         3.0774    0.0449    2.2774 H         1 MOL         0.0459
     23 H12         2.1599    0.4860    3.6979 H         1 MOL         0.0459
     24 H13         3.6247    2.3305    3.7979 H         1 MOL         0.3974
     25 H14         3.5141    4.2043    0.9273 H         1 MOL         0.0664
     26 H15         2.7837    5.1425   -1.2786 H         1 MOL         0.0322
     27 H16         1.7734    3.7106   -1.5425 H         1 MOL         0.0322
     28 H17         3.5334    3.5466   -1.4577 H         1 MOL         0.0322
     29 H18         1.5168    5.7158    0.8505 H         1 MOL         0.0322
     30 H19         1.3861    4.5180    2.1504 H         1 MOL         0.0322
     31 H20         0.4662    4.3021    0.6542 H         1 MOL         0.0322
@<TRIPOS>BOND
     1    1    2 1
     2    2    3 1
     3    2   10 1
     4    2    4 1
     5    4    5 1
     6    5    6 1
     7    6    7 1
     8    6    8 1
     9    8    9 1
    10    8   10 1
    11    8   11 1
    12    6   12 1
    13   12   13 1
    14   12   14 1
    15    1   15 1
    16    1   16 1
    17    1   17 1
    18    4   18 1
    19    4   19 1
    20    5   20 1
    21    5   21 1
    22   10   22 1
    23   10   23 1
    24   11   24 1
    25   12   25 1
    26   13   26 1
    27   13   27 1
    28   13   28 1
    29   14   29 1
    30   14   30 1
    31   14   31 1
