@<TRIPOS>MOLECULE
butyric acid
   14    13     0     0     0
SMALL
USER_CHARGES

@<TRIPOS>ATOM
      1 C1          0.6076   -0.7278    0.5471 C.3       1 MOL        -0.1072
      2 C2         -0.1903   -1.3680    1.6737 C.3       1 MOL        -0.0907
      3 C3         -0.7524   -0.3453    2.6537 C.3       1 MOL        -0.1689
      4 C4         -1.5388   -1.0023    3.7607 C.2       1 MOL         0.6212
      5 O1         -1.7021   -2.2123    3.8549 O.2       1 MOL        -0.4911
      6 O2         -2.0266   -0.1135    4.6608 O.3       1 MOL        -0.5872
      7 H1          1.0001   -1.4816   -0.1422 H         1 MOL         0.0456
      8 H2          1.4489   -0.1490    0.9415 H         1 MOL         0.0456
      9 H3         -0.0305   -0.0489   -0.0276 H         1 MOL         0.0456
     10 H4         -1.0226   -1.9309    1.2354 H         1 MOL         0.0456
     11 H5          0.4456   -2.0899    2.1996 H         1 MOL         0.0456
     12 H6          0.0373    0.2917    3.0667 H         1 MOL         0.0856
     13 H7         -1.4408    0.3310    2.1326 H         1 MOL         0.0856
     14 H8         -1.8279    0.8285    4.4733 H         1 MOL         0.4249
@<TRIPOS>BOND
     1    1    2 1
     2    2    3 1
     3    3    4 1
     4    4    5 2
     5    4    6 1
     6    1    7 1
     7    1    8 1
     8    1    9 1
     9    2   10 1
    10    2   11 1
    11    3   12 1
    12    3   13 1
    13    6   14 1
