@<TRIPOS>MOLECULE
1-nitropropane
   13    12     0     0     0
SMALL
USER_CHARGES

@<TRIPOS>ATOM
      1 C1          1.0421    0.0282   -0.3332 C.3       1 MOL        -0.0938
      2 C2          1.4375    1.4520   -0.6967 C.3       1 MOL        -0.0948
      3 C3          2.8929    1.5602   -1.1253 C.3       1 MOL        -0.0751
      4 N1          3.2020    2.9512   -1.4587 N.pl3     1 MOL         0.2283
      5 O1          3.6197    3.6915   -0.5451 O.2       1 MOL        -0.2101
      6 O2          3.0153    3.3301   -2.6328 O.3       1 MOL        -0.2101
      7 H1         -0.0083   -0.0213   -0.0289 H         1 MOL         0.0448
      8 H2          1.1765   -0.6320   -1.1957 H         1 MOL         0.0448
      9 H3          1.6564   -0.3592    0.4856 H         1 MOL         0.0448
     10 H4          1.2731    2.0973    0.1737 H         1 MOL         0.0662
     11 H5          0.7834    1.8130   -1.4987 H         1 MOL         0.0662
     12 H6          3.5561    1.2542   -0.3107 H         1 MOL         0.0944
     13 H7          3.1047    0.9357   -1.9985 H         1 MOL         0.0944
@<TRIPOS>BOND
     1    1    2 1
     2    2    3 1
     3    3    4 1
     4    4    5 2
     5    4    6 1
     6    1    7 1
     7    1    8 1
     8    1    9 1
     9    2   10 1
    10    2   11 1
    11    3   12 1
    12    3   13 1
