@<TRIPOS>MOLECULE
pentan-2-one
   16    15     0     0     0
SMALL
USER_CHARGES

@<TRIPOS>ATOM
      1 C1          1.8919   -0.6085   -4.8578 C.3       1 MOL        -0.0931
      2 C2          1.0381    0.3830   -4.0845 C.3       1 MOL        -0.0761
      3 C3          1.1477    0.1606   -2.5789 C.3       1 MOL        -0.1794
      4 C4          0.3030    1.1397   -1.7827 C.2       1 MOL         0.5619
      5 O1         -0.3873    2.0098   -2.3114 O.2       1 MOL        -0.5341
      6 C5          0.3516    0.9914   -0.2840 C.3       1 MOL        -0.2033
      7 H1          1.8072   -0.4416   -5.9363 H         1 MOL         0.0340
      8 H2          1.5873   -1.6382   -4.6448 H         1 MOL         0.0340
      9 H3          2.9448   -0.5006   -4.5789 H         1 MOL         0.0340
     10 H4         -0.0069    0.2855   -4.4022 H         1 MOL         0.0535
     11 H5          1.3515    1.4034   -4.3356 H         1 MOL         0.0535
     12 H6          0.8163   -0.8527   -2.3260 H         1 MOL         0.0631
     13 H7          2.1892    0.2774   -2.2591 H         1 MOL         0.0631
     14 H8          1.1578    1.6090    0.1194 H         1 MOL         0.0629
     15 H9          0.5143   -0.0577   -0.0248 H         1 MOL         0.0629
     16 H10        -0.5966    1.3197    0.1508 H         1 MOL         0.0629
@<TRIPOS>BOND
     1    1    2 1
     2    2    3 1
     3    3    4 1
     4    4    5 2
     5    4    6 1
     6    1    7 1
     7    1    8 1
     8    1    9 1
     9    2   10 1
    10    2   11 1
    11    3   12 1
    12    3   13 1
    13    6   14 1
    14    6   15 1
    15    6   16 1
