@<TRIPOS>MOLECULE
chloro(difluoro)methane
    5     4     0     0     0
SMALL
USER_CHARGES

@<TRIPOS>ATOM
      1 C1         -0.0244    0.0886    0.0514 C.3       1 MOL         0.5114
      2 F1         -1.3432   -0.2235    0.0354 F         1 MOL        -0.2132
      3 F2          0.4844   -0.4007    1.2085 F         1 MOL        -0.2132
      4 Cl1         0.7908   -0.6398   -1.3286 Cl        1 MOL        -0.1925
      5 H1          0.0925    1.1753    0.0334 H         1 MOL         0.1074
@<TRIPOS>BOND
     1    1    2 1
     2    1    3 1
     3    1    4 1
     4    1    5 1
