@<TRIPOS>MOLECULE
1,1,2-trichloro-1,2,2-trifluoro-ethane
    8     7     0     0     0
SMALL
USER_CHARGES

@<TRIPOS>ATOM
      1 C1          0.7264   -0.0219    0.2801 C.3       1 MOL         0.4956
      2 C2         -0.6579   -0.0548   -0.3579 C.3       1 MOL         0.3401
      3 F1         -0.5724   -0.8215   -1.4830 F         1 MOL        -0.1576
      4 Cl1        -1.2017    1.5702   -0.8479 Cl        1 MOL        -0.0936
      5 Cl2        -1.8667   -0.8018    0.7179 Cl        1 MOL        -0.0936
      6 F2          1.1048   -1.2900    0.5933 F         1 MOL        -0.1829
      7 F3          1.6296    0.4236   -0.6339 F         1 MOL        -0.1829
      8 Cl3         0.8355    0.9881    1.7370 Cl        1 MOL        -0.1250
@<TRIPOS>BOND
     1    1    2 1
     2    2    3 1
     3    2    4 1
     4    2    5 1
     5    1    6 1
     6    1    7 1
     7    1    8 1
