@<TRIPOS>MOLECULE
2,3-dimethylbuta-1,3-diene
   16    15     0     0     0
SMALL
USER_CHARGES

@<TRIPOS>ATOM
      1 C1         -1.5200   -0.5189    1.1448 C.3       1 MOL        -0.0608
      2 C2         -0.4086    0.3016    0.5347 C.2       1 MOL        -0.0759
      3 C3         -0.2101    1.5498    0.9966 C.2       1 MOL        -0.2189
      4 C4          0.4071   -0.3009   -0.5360 C.2       1 MOL        -0.0759
      5 C5          0.8166    0.3810   -1.6214 C.2       1 MOL        -0.2189
      6 C6          0.8028   -1.7531   -0.4122 C.3       1 MOL        -0.0608
      7 H1         -2.4716   -0.3843    0.6179 H         1 MOL         0.0427
      8 H2         -1.6895   -0.2287    2.1875 H         1 MOL         0.0427
      9 H3         -1.2821   -1.5875    1.1045 H         1 MOL         0.0427
     10 H4          0.5633    2.2071    0.6162 H         1 MOL         0.1138
     11 H5         -0.8306    1.9604    1.7878 H         1 MOL         0.1138
     12 H6          1.4164   -0.0966   -2.3906 H         1 MOL         0.1138
     13 H7          0.5786    1.4250   -1.7911 H         1 MOL         0.1138
     14 H8          0.0514   -2.4018   -0.8758 H         1 MOL         0.0427
     15 H9          1.7569   -1.9663   -0.9079 H         1 MOL         0.0427
     16 H10         0.9203   -2.0360    0.6395 H         1 MOL         0.0427
@<TRIPOS>BOND
     1    1    2 1
     2    2    3 2
     3    2    4 1
     4    4    5 2
     5    4    6 1
     6    1    7 1
     7    1    8 1
     8    1    9 1
     9    3   10 1
    10    3   11 1
    11    5   12 1
    12    5   13 1
    13    6   14 1
    14    6   15 1
    15    6   16 1
