@<TRIPOS>MOLECULE
3-methyl-1H-indole
   19    20     0     0     0
SMALL
USER_CHARGES

@<TRIPOS>ATOM
      1 C1         -4.2341    1.7076    4.5379 C.3       1 MOL        -0.0257
      2 C2         -3.8586    0.6897    3.5356 C.2       1 MOL        -0.1329
      3 C3         -4.5471   -0.4724    3.2738 C.2       1 MOL        -0.0022
      4 N1         -3.8818   -1.1421    2.2822 N.pl3     1 MOL        -0.5847
      5 C4         -2.7685   -0.4315    1.8936 C.ar      1 MOL         0.0815
      6 C5         -2.7304    0.7292    2.6692 C.ar      1 MOL        -0.0893
      7 C6         -1.6773    1.6439    2.4698 C.ar      1 MOL        -0.0806
      8 C7         -0.7036    1.3640    1.5041 C.ar      1 MOL        -0.1601
      9 C8         -0.7671    0.1975    0.7446 C.ar      1 MOL        -0.1132
     10 C9         -1.8022   -0.7245    0.9247 C.ar      1 MOL        -0.1467
     11 H1         -4.8904    2.4561    4.0836 H         1 MOL         0.0390
     12 H2         -4.7539    1.2486    5.3854 H         1 MOL         0.0390
     13 H3         -3.3463    2.2100    4.9362 H         1 MOL         0.0390
     14 H4         -5.4494   -0.8842    3.7045 H         1 MOL         0.1648
     15 H5         -4.1662   -2.0297    1.8914 H         1 MOL         0.4525
     16 H6         -1.6132    2.5572    3.0545 H         1 MOL         0.1332
     17 H7          0.1112    2.0654    1.3462 H         1 MOL         0.1287
     18 H8         -0.0003    0.0001   -0.0001 H         1 MOL         0.1276
     19 H9         -1.8514   -1.6318    0.3322 H         1 MOL         0.1302
@<TRIPOS>BOND
     1    1    2 1
     2    2    6 1
     3    2    3 2
     4    3    4 1
     5    4    5 1
     6    5   10 ar
     7    5    6 ar
     8    6    7 ar
     9    7    8 ar
    10    8    9 ar
    11    9   10 ar
    12    1   11 1
    13    1   12 1
    14    1   13 1
    15    3   14 1
    16    4   15 1
    17    7   16 1
    18    8   17 1
    19    9   18 1
    20   10   19 1
