@<TRIPOS>MOLECULE
1-methoxypropane
   15    14     0     0     0
SMALL
USER_CHARGES

@<TRIPOS>ATOM
      1 C1         -0.0023   -0.6657    0.8688 C.3       1 MOL        -0.0933
      2 C2          1.2444   -0.4434    1.7060 C.3       1 MOL        -0.0843
      3 C3          1.2749   -1.3494    2.9273 C.3       1 MOL         0.1280
      4 O1          2.4629   -1.0899    3.6622 O.3       1 MOL        -0.4235
      5 C4          2.5499   -1.9092    4.8204 C.3       1 MOL         0.1173
      6 H1         -0.0099   -0.0072   -0.0057 H         1 MOL         0.0347
      7 H2         -0.0425   -1.7005    0.5148 H         1 MOL         0.0347
      8 H3         -0.9071   -0.4713    1.4534 H         1 MOL         0.0347
      9 H4          1.2973    0.6048    2.0240 H         1 MOL         0.0540
     10 H5          2.1387   -0.6182    1.0958 H         1 MOL         0.0540
     11 H6          0.4147   -1.1588    3.5770 H         1 MOL         0.0246
     12 H7          1.2712   -2.4035    2.6320 H         1 MOL         0.0246
     13 H8          3.4729   -1.6797    5.3547 H         1 MOL         0.0315
     14 H9          2.5357   -2.9582    4.5209 H         1 MOL         0.0315
     15 H10         1.6933   -1.6996    5.4624 H         1 MOL         0.0315
@<TRIPOS>BOND
     1    1    2 1
     2    2    3 1
     3    3    4 1
     4    4    5 1
     5    1    6 1
     6    1    7 1
     7    1    8 1
     8    2    9 1
     9    2   10 1
    10    3   11 1
    11    3   12 1
    12    5   13 1
    13    5   14 1
    14    5   15 1
