@<TRIPOS>MOLECULE
2-aminoanthracene-9,10-dione
   26    28     0     0     0
SMALL
USER_CHARGES

@<TRIPOS>ATOM
      1 C1          1.2904   -1.6865   -0.3516 C.ar      1 MOL        -0.1165
      2 C2          0.9563   -0.4630    0.2256 C.ar      1 MOL        -0.1199
      3 C3          1.8484    0.1684    1.0928 C.ar      1 MOL        -0.0872
      4 C4          3.0812   -0.4277    1.3842 C.ar      1 MOL        -0.1299
      5 C5          3.4160   -1.6538    0.8057 C.ar      1 MOL        -0.1234
      6 C6          2.5179   -2.2839   -0.0640 C.ar      1 MOL        -0.0897
      7 C7          4.7134   -2.2938    1.1043 C.2       1 MOL         0.5922
      8 O1          5.0071   -3.3693    0.5971 O.2       1 MOL        -0.5368
      9 C8          5.6516   -1.6180    2.0237 C.ar      1 MOL        -0.1869
     10 C9          6.8845   -2.2140    2.3149 C.ar      1 MOL        -0.0395
     11 C10         7.7766   -1.5826    3.1822 C.ar      1 MOL        -0.1988
     12 C11         7.4425   -0.3591    3.7594 C.ar      1 MOL         0.1828
     13 C12         6.2150    0.2382    3.4720 C.ar      1 MOL        -0.1626
     14 C13         5.3168   -0.3919    2.6022 C.ar      1 MOL        -0.0794
     15 C14         4.0194    0.2481    2.3036 C.2       1 MOL         0.5841
     16 O2          3.7251    1.3235    2.8104 O.2       1 MOL        -0.5274
     17 N1          8.3469    0.2762    4.6363 N.pl3     1 MOL        -0.8407
     18 H1          0.5938   -2.1769   -1.0254 H         1 MOL         0.1410
     19 H2         -0.0006   -0.0005    0.0012 H         1 MOL         0.1407
     20 H3          1.5648    1.1220    1.5304 H         1 MOL         0.1589
     21 H4          2.7545   -3.2381   -0.5270 H         1 MOL         0.1597
     22 H5          7.1687   -3.1676    1.8783 H         1 MOL         0.1584
     23 H6          8.7307   -2.0551    3.4018 H         1 MOL         0.1398
     24 H7          5.9679    1.1935    3.9297 H         1 MOL         0.1582
     25 H8          8.1162    1.1756    5.0070 H         1 MOL         0.4115
     26 H9          9.2421   -0.1388    4.7975 H         1 MOL         0.4115
@<TRIPOS>BOND
     1    1    6 ar
     2    1    2 ar
     3    2    3 ar
     4    3    4 ar
     5    4   15 1
     6    4    5 ar
     7    5    6 ar
     8    5    7 1
     9    7    8 2
    10    7    9 1
    11    9   14 ar
    12    9   10 ar
    13   10   11 ar
    14   11   12 ar
    15   12   13 ar
    16   13   14 ar
    17   14   15 1
    18   15   16 2
    19   12   17 1
    20    1   18 1
    21    2   19 1
    22    3   20 1
    23    6   21 1
    24   10   22 1
    25   11   23 1
    26   13   24 1
    27   17   25 1
    28   17   26 1
