@<TRIPOS>MOLECULE
2-chloropyridine
   11    11     0     0     0
SMALL
USER_CHARGES

@<TRIPOS>ATOM
      1 C1          1.3879   -0.0684    1.6522 C.ar      1 MOL        -0.0871
      2 C2          0.2265   -0.4197    0.9733 C.ar      1 MOL        -0.2466
      3 C3         -0.6317   -1.3224    1.5803 C.ar      1 MOL         0.4077
      4 N1         -0.4092   -1.8816    2.7908 N.ar      1 MOL        -0.6549
      5 C4          0.7299   -1.5161    3.4206 C.ar      1 MOL         0.4894
      6 C5          1.6520   -0.6227    2.8997 C.ar      1 MOL        -0.2351
      7 Cl1         0.9732   -2.2488    4.9527 Cl        1 MOL        -0.1519
      8 H1          2.0857    0.6366    1.2103 H         1 MOL         0.1428
      9 H2         -0.0002    0.0006    0.0001 H         1 MOL         0.1489
     10 H3         -1.5510   -1.6287    1.0921 H         1 MOL         0.0294
     11 H4          2.5552   -0.3545    3.4378 H         1 MOL         0.1575
@<TRIPOS>BOND
     1    1    6 ar
     2    1    2 ar
     3    2    3 ar
     4    3    4 ar
     5    4    5 ar
     6    5    6 ar
     7    5    7 1
     8    1    8 1
     9    2    9 1
    10    3   10 1
    11    6   11 1
