@<TRIPOS>MOLECULE
(2S)-1,1,1-trifluoropropan-2-ol
   12    11     0     0     0
SMALL
USER_CHARGES

@<TRIPOS>ATOM
      1 C1         -0.7763    0.5918    0.8349 C.3       1 MOL        -0.1412
      2 C2         -0.2372   -0.1769   -0.3621 C.3       1 MOL         0.1110
      3 H1         -0.9249   -0.9878   -0.6244 H         1 MOL         0.0719
      4 C3         -0.0318    0.7195   -1.5646 C.3       1 MOL         0.6345
      5 F1          0.8489    1.7065   -1.2889 F         1 MOL        -0.2327
      6 F2          0.4602    0.0180   -2.6098 F         1 MOL        -0.2327
      7 F3         -1.1868    1.2952   -1.9605 F         1 MOL        -0.2327
      8 O1          1.0171   -0.7582   -0.0206 O.3       1 MOL        -0.5844
      9 H2         -0.1017    1.4088    1.1138 H         1 MOL         0.0625
     10 H3         -0.9132   -0.0628    1.7007 H         1 MOL         0.0625
     11 H4         -1.7404    1.0513    0.5914 H         1 MOL         0.0625
     12 H5          0.8528   -1.3524    0.7284 H         1 MOL         0.4187
@<TRIPOS>BOND
     1    1    2 1
     2    2    3 1
     3    2    4 1
     4    4    5 1
     5    4    6 1
     6    4    7 1
     7    2    8 1
     8    1    9 1
     9    1   10 1
    10    1   11 1
    11    8   12 1
