@<TRIPOS>MOLECULE
1-chloro-2-(2-chloroethoxy)ethane
   15    14     0     0     0
SMALL
USER_CHARGES

@<TRIPOS>ATOM
      1 C1         -0.7818   -0.2452   -0.7259 C.3       1 MOL         0.1194
      2 C2          0.2691    0.0621    0.3248 C.3       1 MOL         0.0303
      3 Cl1         1.3538   -1.3317    0.5624 Cl        1 MOL        -0.1821
      4 O1         -0.1499   -0.5456   -1.9628 O.3       1 MOL        -0.4231
      5 C3         -1.1011   -0.8401   -2.9768 C.3       1 MOL         0.1194
      6 C4         -0.3835   -1.1540   -4.2766 C.3       1 MOL         0.0303
      7 Cl2         0.6035    0.2321   -4.8058 Cl        1 MOL        -0.1821
      8 H1         -1.4138   -1.0895   -0.4317 H         1 MOL         0.0436
      9 H2         -1.4194    0.6314   -0.8785 H         1 MOL         0.0436
     10 H3          0.8937    0.9088    0.0257 H         1 MOL         0.0784
     11 H4         -0.1984    0.2804    1.2888 H         1 MOL         0.0784
     12 H5         -1.7836    0.0091   -3.0858 H         1 MOL         0.0436
     13 H6         -1.6780   -1.7122   -2.6531 H         1 MOL         0.0436
     14 H7          0.2932   -2.0055   -4.1607 H         1 MOL         0.0784
     15 H8         -1.1007   -1.3679   -5.0736 H         1 MOL         0.0784
@<TRIPOS>BOND
     1    1    2 1
     2    2    3 1
     3    1    4 1
     4    4    5 1
     5    5    6 1
     6    6    7 1
     7    1    8 1
     8    1    9 1
     9    2   10 1
    10    2   11 1
    11    5   12 1
    12    5   13 1
    13    6   14 1
    14    6   15 1
