@<TRIPOS>MOLECULE
2-hydroxybenzaldehyde
   15    15     0     0     0
SMALL
USER_CHARGES

@<TRIPOS>ATOM
      1 C1          1.8851   -1.0363   -0.1124 C.ar      1 MOL        -0.1805
      2 C2          2.9210   -1.6309    0.6081 C.ar      1 MOL        -0.0606
      3 C3          2.8783   -1.6520    2.0022 C.ar      1 MOL        -0.2320
      4 C4          1.7997   -1.0786    2.6757 C.ar      1 MOL         0.1701
      5 C5          0.7638   -0.4841    1.9551 C.ar      1 MOL        -0.2248
      6 C6          0.8066   -0.4630    0.5610 C.ar      1 MOL        -0.0406
      7 C7         -0.3712    0.1205    2.6384 C.2       1 MOL         0.5854
      8 O1         -1.3075    0.6561    2.0410 O.2       1 MOL        -0.5390
      9 O2          1.7765   -1.1094    4.0380 O.3       1 MOL        -0.4992
     10 H1          1.9186   -1.0199   -1.1979 H         1 MOL         0.1413
     11 H2          3.7608   -2.0772    0.0837 H         1 MOL         0.1365
     12 H3          3.6886   -2.1167    2.5573 H         1 MOL         0.1383
     13 H4          0.0053   -0.0026   -0.0114 H         1 MOL         0.1588
     14 H5         -0.3741    0.0873    3.7488 H         1 MOL         0.0184
     15 H6          2.5679   -1.5567    4.3761 H         1 MOL         0.4277
@<TRIPOS>BOND
     1    1    6 ar
     2    1    2 ar
     3    2    3 ar
     4    3    4 ar
     5    4    5 ar
     6    5    6 ar
     7    5    7 1
     8    7    8 2
     9    4    9 1
    10    1   10 1
    11    2   11 1
    12    3   12 1
    13    6   13 1
    14    7   14 1
    15    9   15 1
