@<TRIPOS>MOLECULE
methane
    5     4     0     0     0
SMALL
USER_CHARGES

@<TRIPOS>ATOM
      1 C1         -0.0000   -0.0001    0.0000 C.3       1 MOL        -0.1087
      2 H1          0.5541    0.7996    0.4965 H         1 MOL         0.0272
      3 H2          0.6833   -0.8134   -0.2537 H         1 MOL         0.0272
      4 H3         -0.7782   -0.3735    0.6693 H         1 MOL         0.0272
      5 H4         -0.4591    0.3873   -0.9121 H         1 MOL         0.0272
@<TRIPOS>BOND
     1    1    2 1
     2    1    3 1
     3    1    4 1
     4    1    5 1
