@<TRIPOS>MOLECULE
mesitylene
   21    21     0     0     0
SMALL
USER_CHARGES

@<TRIPOS>ATOM
      1 C1          1.9309   -1.0137   -1.6029 C.3       1 MOL        -0.0533
      2 C2          1.8851   -1.0363   -0.1124 C.ar      1 MOL        -0.0710
      3 C3          2.9210   -1.6309    0.6081 C.ar      1 MOL        -0.1353
      4 C4          2.8783   -1.6520    2.0022 C.ar      1 MOL        -0.0710
      5 C5          1.7997   -1.0786    2.6757 C.ar      1 MOL        -0.1353
      6 C6          0.7638   -0.4841    1.9551 C.ar      1 MOL        -0.0710
      7 C7          0.8066   -0.4630    0.5610 C.ar      1 MOL        -0.1353
      8 C8         -0.3894    0.1289    2.6751 C.3       1 MOL        -0.0531
      9 C9          3.9858   -2.2877    2.7726 C.3       1 MOL        -0.0531
     10 H1          2.4387   -0.1080   -1.9483 H         1 MOL         0.0433
     11 H2          2.4635   -1.8882   -1.9911 H         1 MOL         0.0433
     12 H3          0.9207   -1.0362   -2.0254 H         1 MOL         0.0433
     13 H4          3.7619   -2.0778    0.0831 H         1 MOL         0.1297
     14 H5          1.7664   -1.0951    3.7625 H         1 MOL         0.1297
     15 H6         -0.0011    0.0004   -0.0008 H         1 MOL         0.1297
     16 H7         -0.1882    1.1859    2.8884 H         1 MOL         0.0433
     17 H8         -1.3104    0.0629    2.0816 H         1 MOL         0.0433
     18 H9         -0.5858   -0.3863    3.6245 H         1 MOL         0.0433
     19 H10         4.7659   -1.5506    2.9988 H         1 MOL         0.0433
     20 H11         3.6220   -2.7105    3.7181 H         1 MOL         0.0433
     21 H12         4.4400   -3.1135    2.2095 H         1 MOL         0.0433
@<TRIPOS>BOND
     1    1    2 1
     2    2    7 ar
     3    2    3 ar
     4    3    4 ar
     5    4    5 ar
     6    5    6 ar
     7    6    7 ar
     8    6    8 1
     9    4    9 1
    10    1   10 1
    11    1   11 1
    12    1   12 1
    13    3   13 1
    14    5   14 1
    15    7   15 1
    16    8   16 1
    17    8   17 1
    18    8   18 1
    19    9   19 1
    20    9   20 1
    21    9   21 1
