@<TRIPOS>MOLECULE
2-methoxy-4-methyl-phenol
   20    20     0     0     0
SMALL
USER_CHARGES

@<TRIPOS>ATOM
      1 C1          1.9313   -1.0156   -1.6029 C.3       1 MOL        -0.0514
      2 C2          1.8851   -1.0363   -0.1124 C.ar      1 MOL        -0.0806
      3 C3          2.9210   -1.6309    0.6081 C.ar      1 MOL        -0.1252
      4 C4          2.8783   -1.6520    2.0022 C.ar      1 MOL        -0.1329
      5 C5          1.7997   -1.0786    2.6757 C.ar      1 MOL         0.1061
      6 C6          0.7638   -0.4841    1.9551 C.ar      1 MOL         0.0465
      7 C7          0.8066   -0.4630    0.5610 C.ar      1 MOL        -0.1646
      8 O1         -0.2945    0.0799    2.6014 O.3       1 MOL        -0.3484
      9 C8         -1.3110    0.6665    1.7910 C.3       1 MOL         0.1218
     10 O2          1.7689   -1.1059    4.0372 O.3       1 MOL        -0.4971
     11 H1          2.4388   -0.1102   -1.9492 H         1 MOL         0.0433
     12 H2          2.4646   -1.8904   -1.9896 H         1 MOL         0.0433
     13 H3          0.9213   -1.0392   -2.0256 H         1 MOL         0.0433
     14 H4          3.7652   -2.0807    0.0919 H         1 MOL         0.1359
     15 H5          3.6886   -2.1162    2.5579 H         1 MOL         0.1523
     16 H6         -0.0022    0.0002    0.0015 H         1 MOL         0.1383
     17 H7         -2.0875    1.0750    2.4366 H         1 MOL         0.0450
     18 H8         -1.7233   -0.0963    1.1314 H         1 MOL         0.0450
     19 H9         -0.8635    1.4645    1.2001 H         1 MOL         0.0450
     20 H10         0.9645   -0.6726    4.3631 H         1 MOL         0.4344
@<TRIPOS>BOND
     1    1    2 1
     2    2    7 ar
     3    2    3 ar
     4    3    4 ar
     5    4    5 ar
     6    5    6 ar
     7    6    7 ar
     8    6    8 1
     9    8    9 1
    10    5   10 1
    11    1   11 1
    12    1   12 1
    13    1   13 1
    14    3   14 1
    15    4   15 1
    16    7   16 1
    17    9   17 1
    18    9   18 1
    19    9   19 1
    20   10   20 1
