@<TRIPOS>MOLECULE
4-chlorophenol
   13    13     0     0     0
SMALL
USER_CHARGES

@<TRIPOS>ATOM
      1 C1          1.8851   -1.0363   -0.1124 C.ar      1 MOL        -0.1784
      2 C2          2.9210   -1.6309    0.6081 C.ar      1 MOL        -0.0874
      3 C3          2.8783   -1.6520    2.0022 C.ar      1 MOL        -0.0199
      4 C4          1.7997   -1.0786    2.6757 C.ar      1 MOL        -0.0874
      5 C5          0.7638   -0.4841    1.9551 C.ar      1 MOL        -0.1784
      6 C6          0.8066   -0.4630    0.5610 C.ar      1 MOL         0.1263
      7 O1         -0.2041    0.1171   -0.1422 O.3       1 MOL        -0.4936
      8 Cl1         4.1571   -2.3840    2.8911 Cl        1 MOL        -0.0949
      9 H1          1.9241   -1.0228   -1.1982 H         1 MOL         0.1467
     10 H2          3.7553   -2.0735    0.0699 H         1 MOL         0.1493
     11 H3          1.7531   -1.0876    3.7616 H         1 MOL         0.1493
     12 H4         -0.0738   -0.0392    2.4852 H         1 MOL         0.1467
     13 H5         -0.8764    0.4687    0.4630 H         1 MOL         0.4215
@<TRIPOS>BOND
     1    1    6 ar
     2    1    2 ar
     3    2    3 ar
     4    3    4 ar
     5    4    5 ar
     6    5    6 ar
     7    6    7 1
     8    3    8 1
     9    1    9 1
    10    2   10 1
    11    4   11 1
    12    5   12 1
    13    7   13 1
