@<TRIPOS>MOLECULE
1-ethyl-4-methyl-benzene
   21    21     0     0     0
SMALL
USER_CHARGES

@<TRIPOS>ATOM
      1 C1          1.2661   -2.2403   -2.2082 C.3       1 MOL        -0.0889
      2 C2          1.9305   -1.0133   -1.6029 C.3       1 MOL        -0.0380
      3 C3          1.8851   -1.0363   -0.1124 C.ar      1 MOL        -0.0815
      4 C4          2.9210   -1.6309    0.6081 C.ar      1 MOL        -0.1242
      5 C5          2.8783   -1.6520    2.0022 C.ar      1 MOL        -0.1287
      6 C6          1.7997   -1.0786    2.6757 C.ar      1 MOL        -0.0807
      7 C7          0.7638   -0.4841    1.9551 C.ar      1 MOL        -0.1287
      8 C8          0.8066   -0.4630    0.5610 C.ar      1 MOL        -0.1242
      9 C9          1.7529   -1.1036    4.1660 C.3       1 MOL        -0.0531
     10 H1          1.3046   -2.2139   -3.3025 H         1 MOL         0.0358
     11 H2          0.2150   -2.2885   -1.9070 H         1 MOL         0.0358
     12 H3          1.7566   -3.1619   -1.8768 H         1 MOL         0.0358
     13 H4          1.4391   -0.1054   -1.9733 H         1 MOL         0.0453
     14 H5          2.9726   -0.9522   -1.9397 H         1 MOL         0.0453
     15 H6          3.7650   -2.0800    0.0916 H         1 MOL         0.1303
     16 H7          3.6891   -2.1183    2.5555 H         1 MOL         0.1300
     17 H8         -0.0809   -0.0359    2.4717 H         1 MOL         0.1300
     18 H9         -0.0052    0.0022    0.0080 H         1 MOL         0.1303
     19 H10         2.2382   -0.2106    4.5785 H         1 MOL         0.0432
     20 H11         0.7185   -1.1377    4.5318 H         1 MOL         0.0432
     21 H12         2.2604   -1.9914    4.5658 H         1 MOL         0.0432
@<TRIPOS>BOND
     1    1    2 1
     2    2    3 1
     3    3    8 ar
     4    3    4 ar
     5    4    5 ar
     6    5    6 ar
     7    6    7 ar
     8    7    8 ar
     9    6    9 1
    10    1   10 1
    11    1   11 1
    12    1   12 1
    13    2   13 1
    14    2   14 1
    15    4   15 1
    16    5   16 1
    17    7   17 1
    18    8   18 1
    19    9   19 1
    20    9   20 1
    21    9   21 1
