@<TRIPOS>MOLECULE
1,1,1,2-tetramethoxyethane
   24    23     0     0     0
SMALL
USER_CHARGES

@<TRIPOS>ATOM
      1 C1          1.6880   -1.6004   -2.9713 C.3       1 MOL         0.1091
      2 O1          0.7587   -1.4729   -1.9036 O.3       1 MOL        -0.3869
      3 C2          0.9068   -0.2287   -1.2275 C.3       1 MOL         0.1077
      4 C3         -0.1172   -0.1296   -0.0787 C.3       1 MOL         0.5294
      5 O2         -0.2213   -1.4127    0.5776 O.3       1 MOL        -0.4391
      6 C4          0.8090   -1.7094    1.5100 C.3       1 MOL         0.1321
      7 O3         -1.3788    0.1793   -0.7157 O.3       1 MOL        -0.4391
      8 C5         -2.4629    0.3119    0.1953 C.3       1 MOL         0.1321
      9 O4          0.2610    0.8881    0.8684 O.3       1 MOL        -0.4391
     10 C6          0.3693    2.2068    0.3520 C.3       1 MOL         0.1321
     11 H1          1.5457   -2.5644   -3.4660 H         1 MOL         0.0355
     12 H2          2.7059   -1.5261   -2.5805 H         1 MOL         0.0355
     13 H3          1.5161   -0.7958   -3.6901 H         1 MOL         0.0355
     14 H4          1.9350   -0.1470   -0.8616 H         1 MOL         0.0471
     15 H5          0.7473    0.5629   -1.9674 H         1 MOL         0.0471
     16 H6          0.6309   -2.6954    1.9417 H         1 MOL         0.0401
     17 H7          0.8165   -0.9488    2.2925 H         1 MOL         0.0401
     18 H8          1.7664   -1.7063    0.9870 H         1 MOL         0.0401
     19 H9         -3.3723    0.5434   -0.3605 H         1 MOL         0.0401
     20 H10        -2.2389    1.1084    0.9061 H         1 MOL         0.0401
     21 H11        -2.5885   -0.6312    0.7281 H         1 MOL         0.0401
     22 H12         0.6592    2.8859    1.1554 H         1 MOL         0.0401
     23 H13        -0.5905    2.5085   -0.0709 H         1 MOL         0.0401
     24 H14         1.1321    2.2166   -0.4281 H         1 MOL         0.0401
@<TRIPOS>BOND
     1    1    2 1
     2    2    3 1
     3    3    4 1
     4    4    5 1
     5    5    6 1
     6    4    7 1
     7    7    8 1
     8    4    9 1
     9    9   10 1
    10    1   11 1
    11    1   12 1
    12    1   13 1
    13    3   14 1
    14    3   15 1
    15    6   16 1
    16    6   17 1
    17    6   18 1
    18    8   19 1
    19    8   20 1
    20    8   21 1
    21   10   22 1
    22   10   23 1
    23   10   24 1
