@<TRIPOS>MOLECULE
(4-chlorophenyl)sulfanylmethylsulfanyl-diethoxy-thioxo-$l^{5}-phosphane
   34    34     0     0     0
SMALL
USER_CHARGES

@<TRIPOS>ATOM
      1 C1          2.1824   -0.5074   -0.4906 C.3       1 MOL        -0.0980
      2 C2          0.7668   -0.6302    0.0316 C.3       1 MOL         0.1519
      3 O1          0.5066   -1.9883    0.3457 O.3       1 MOL        -0.5034
      4 P1         -0.9515   -2.4349    0.9358 P.3       1 MOL         0.8787
      5 S1         -2.4089   -2.0114   -0.3077 S.2       1 MOL        -0.4400
      6 O2         -0.6713   -4.0425    1.0396 O.3       1 MOL        -0.5034
      7 C3         -1.6796   -4.9159    1.5201 C.3       1 MOL         0.1519
      8 C4         -1.1514   -6.3352    1.5091 C.3       1 MOL        -0.0980
      9 S2         -1.0646   -1.6987    2.9278 S.3       1 MOL        -0.3990
     10 C5          0.3132   -2.4840    3.8033 C.3       1 MOL         0.1527
     11 S3          0.3961   -1.9799    5.5494 S.3       1 MOL        -0.1174
     12 C6          1.8218   -2.9074    6.1024 C.ar      1 MOL        -0.0457
     13 C7          2.2481   -2.8073    7.4268 C.ar      1 MOL        -0.0871
     14 C8          3.3600   -3.5306    7.8581 C.ar      1 MOL        -0.1285
     15 C9          4.0457   -4.3540    6.9651 C.ar      1 MOL         0.0347
     16 C10         3.6194   -4.4541    5.6407 C.ar      1 MOL        -0.1285
     17 C11         2.5074   -3.7307    5.2094 C.ar      1 MOL        -0.0871
     18 Cl1         5.4173   -5.2467    7.4973 Cl        1 MOL        -0.0866
     19 H1          2.4165    0.5306   -0.7431 H         1 MOL         0.0577
     20 H2          2.9013   -0.8603    0.2561 H         1 MOL         0.0577
     21 H3          2.3198   -1.1275   -1.3826 H         1 MOL         0.0577
     22 H4          0.0488   -0.2995   -0.7247 H         1 MOL         0.0536
     23 H5          0.6375   -0.0282    0.9360 H         1 MOL         0.0536
     24 H6         -1.9520   -4.6169    2.5373 H         1 MOL         0.0536
     25 H7         -2.5597   -4.8299    0.8749 H         1 MOL         0.0536
     26 H8         -1.9064   -7.0366    1.8750 H         1 MOL         0.0577
     27 H9         -0.8571   -6.6291    0.4963 H         1 MOL         0.0577
     28 H10        -0.2580   -6.4186    2.1369 H         1 MOL         0.0577
     29 H11         1.2539   -2.2709    3.2897 H         1 MOL         0.0981
     30 H12         0.1617   -3.5666    3.7736 H         1 MOL         0.0981
     31 H13         1.7267   -2.1705    8.1373 H         1 MOL         0.1466
     32 H14         3.6811   -3.4427    8.8929 H         1 MOL         0.1514
     33 H15         4.1438   -5.0922    4.9340 H         1 MOL         0.1514
     34 H16         2.1900   -3.8218    4.1735 H         1 MOL         0.1466
@<TRIPOS>BOND
     1    1    2 1
     2    2    3 1
     3    3    4 1
     4    4    5 2
     5    4    6 1
     6    6    7 1
     7    7    8 1
     8    4    9 1
     9    9   10 1
    10   10   11 1
    11   11   12 1
    12   12   17 ar
    13   12   13 ar
    14   13   14 ar
    15   14   15 ar
    16   15   16 ar
    17   16   17 ar
    18   15   18 1
    19    1   19 1
    20    1   20 1
    21    1   21 1
    22    2   22 1
    23    2   23 1
    24    7   24 1
    25    7   25 1
    26    8   26 1
    27    8   27 1
    28    8   28 1
    29   10   29 1
    30   10   30 1
    31   13   31 1
    32   14   32 1
    33   16   33 1
    34   17   34 1
