@<TRIPOS>MOLECULE
1,1,2,3,3,3-hexafluoroprop-1-ene
    9     8     0     0     0
SMALL
USER_CHARGES

@<TRIPOS>ATOM
      1 C1          0.2302    0.0259    0.4913 C.2       1 MOL        -0.0552
      2 C2         -0.9363   -0.4461    0.9412 C.2       1 MOL         0.3792
      3 F1         -1.1323   -0.6692    2.2574 F         1 MOL        -0.1286
      4 F2         -1.9323   -0.7033    0.0671 F         1 MOL        -0.1286
      5 C3          0.5481    0.3055   -0.9341 C.3       1 MOL         0.6941
      6 F3          1.8040    0.7802   -1.1293 F         1 MOL        -0.2160
      7 F4          0.4302   -0.8131   -1.6937 F         1 MOL        -0.2160
      8 F5         -0.3028    1.2244   -1.4574 F         1 MOL        -0.2160
      9 F6          1.1998    0.2690    1.4040 F         1 MOL        -0.1129
@<TRIPOS>BOND
     1    1    2 2
     2    2    3 1
     3    2    4 1
     4    1    5 1
     5    5    6 1
     6    5    7 1
     7    5    8 1
     8    1    9 1
