@<TRIPOS>MOLECULE
1-iodopropane
   11    10     0     0     0
SMALL
USER_CHARGES

@<TRIPOS>ATOM
      1 C1         -0.5092   -0.5493    0.7984 C.3       1 MOL        -0.0952
      2 C2          0.3041   -0.5215    2.0835 C.3       1 MOL        -0.0769
      3 C3          1.6753   -1.1640    1.8863 C.3       1 MOL         0.0695
      4 I1          2.8006   -1.1141    3.7034 I         1 MOL        -0.2551
      5 H1         -1.4874   -0.0851    0.9588 H         1 MOL         0.0369
      6 H2          0.0002   -0.0004   -0.0001 H         1 MOL         0.0369
      7 H3         -0.6725   -1.5772    0.4595 H         1 MOL         0.0369
      8 H4         -0.2530   -1.0471    2.8685 H         1 MOL         0.0522
      9 H5          0.4154    0.5191    2.4115 H         1 MOL         0.0522
     10 H6          2.2287   -0.6354    1.1021 H         1 MOL         0.0713
     11 H7          1.5598   -2.2035    1.5595 H         1 MOL         0.0713
@<TRIPOS>BOND
     1    1    2 1
     2    2    3 1
     3    3    4 1
     4    1    5 1
     5    1    6 1
     6    1    7 1
     7    2    8 1
     8    2    9 1
     9    3   10 1
    10    3   11 1
