@<TRIPOS>MOLECULE
propyl formate
   14    13     0     0     0
SMALL
USER_CHARGES

@<TRIPOS>ATOM
      1 C1         -0.0035   -0.6640    0.8700 C.3       1 MOL        -0.0941
      2 C2          1.2444   -0.4434    1.7060 C.3       1 MOL        -0.0854
      3 C3          1.2749   -1.3494    2.9273 C.3       1 MOL         0.1357
      4 O1          2.4640   -1.0915    3.6610 O.3       1 MOL        -0.4520
      5 C4          2.6334   -1.8331    4.7912 C.2       1 MOL         0.6295
      6 O2          1.8806   -2.6858    5.2352 O.2       1 MOL        -0.5406
      7 H1         -0.0110   -0.0055   -0.0044 H         1 MOL         0.0381
      8 H2         -0.0454   -1.6989    0.5161 H         1 MOL         0.0381
      9 H3         -0.9074   -0.4685    1.4555 H         1 MOL         0.0381
     10 H4          1.2990    0.6047    2.0239 H         1 MOL         0.0542
     11 H5          2.1379   -0.6194    1.0950 H         1 MOL         0.0542
     12 H6          0.4156   -1.1576    3.5778 H         1 MOL         0.0520
     13 H7          1.2695   -2.4035    2.6321 H         1 MOL         0.0520
     14 H8          3.5833   -1.5443    5.2669 H         1 MOL         0.0801
@<TRIPOS>BOND
     1    1    2 1
     2    2    3 1
     3    3    4 1
     4    4    5 1
     5    5    6 2
     6    1    7 1
     7    1    8 1
     8    1    9 1
     9    2   10 1
    10    2   11 1
    11    3   12 1
    12    3   13 1
    13    5   14 1
