@<TRIPOS>MOLECULE
methylcyclopentane
   18    18     0     0     0
SMALL
USER_CHARGES

@<TRIPOS>ATOM
      1 C1          0.5910   -1.1933   -4.1767 C.3       1 MOL        -0.0840
      2 C2          0.0448   -0.9981   -2.7731 C.3       1 MOL        -0.0716
      3 C3          0.6372    0.2135   -2.0602 C.3       1 MOL        -0.0775
      4 C4         -0.3396    0.4881   -0.9209 C.3       1 MOL        -0.0807
      5 C5         -1.6799   -0.1059   -1.3575 C.3       1 MOL        -0.0807
      6 C6         -1.4494   -0.6928   -2.7462 C.3       1 MOL        -0.0775
      7 H1          1.6631   -1.4093   -4.1453 H         1 MOL         0.0335
      8 H2          0.0859   -2.0271   -4.6733 H         1 MOL         0.0335
      9 H3          0.4388   -0.2914   -4.7771 H         1 MOL         0.0335
     10 H4          0.2422   -1.9014   -2.1809 H         1 MOL         0.0444
     11 H5          1.6518    0.0270   -1.6943 H         1 MOL         0.0420
     12 H6          0.6757    1.0813   -2.7303 H         1 MOL         0.0420
     13 H7          0.0009    0.0008    0.0000 H         1 MOL         0.0398
     14 H8         -0.4171    1.5603   -0.7140 H         1 MOL         0.0398
     15 H9         -1.9815   -0.8931   -0.6567 H         1 MOL         0.0398
     16 H10        -2.4750    0.6463   -1.3687 H         1 MOL         0.0398
     17 H11        -2.0610   -1.5832   -2.9214 H         1 MOL         0.0420
     18 H12        -1.7112    0.0502   -3.5096 H         1 MOL         0.0420
@<TRIPOS>BOND
     1    1    2 1
     2    2    6 1
     3    2    3 1
     4    3    4 1
     5    4    5 1
     6    5    6 1
     7    1    7 1
     8    1    8 1
     9    1    9 1
    10    2   10 1
    11    3   11 1
    12    3   12 1
    13    4   13 1
    14    4   14 1
    15    5   15 1
    16    5   16 1
    17    6   17 1
    18    6   18 1
