@<TRIPOS>MOLECULE
5-(2,4-difluorophenyl)-2-hydroxy-benzoic acid
   26    27     0     0     0
SMALL
USER_CHARGES

@<TRIPOS>ATOM
      1 C1          1.8851   -1.0363   -0.1124 C.ar      1 MOL        -0.0417
      2 C2          2.9210   -1.6309    0.6081 C.ar      1 MOL        -0.2348
      3 C3          2.8783   -1.6520    2.0022 C.ar      1 MOL         0.1897
      4 C4          1.7997   -1.0786    2.6757 C.ar      1 MOL        -0.1594
      5 C5          0.7638   -0.4841    1.9551 C.ar      1 MOL        -0.0190
      6 C6          0.8066   -0.4630    0.5610 C.ar      1 MOL        -0.0941
      7 C7         -0.2675    0.1536   -0.1870 C.ar      1 MOL        -0.0850
      8 C8         -1.0064   -0.6068   -1.0934 C.ar      1 MOL        -0.0729
      9 C9         -2.0423   -0.0166   -1.8174 C.ar      1 MOL        -0.1815
     10 C10        -2.3393    1.3341   -1.6351 C.ar      1 MOL         0.1562
     11 C11        -1.6003    2.0945   -0.7287 C.ar      1 MOL        -0.2082
     12 C12        -0.5644    1.5042   -0.0047 C.ar      1 MOL         0.1648
     13 F1          0.1381    2.2494    0.8614 F         1 MOL        -0.1273
     14 F2         -3.3326    1.9013   -2.3319 F         1 MOL        -0.1322
     15 C13         1.7367   -1.0893    4.1306 C.2       1 MOL         0.6610
     16 O1          2.2257   -1.9565    4.8601 O.2       1 MOL        -0.5283
     17 O2          1.0658   -0.0155    4.6284 O.3       1 MOL        -0.6126
     18 O3          3.9007   -2.2363    2.6880 O.3       1 MOL        -0.4664
     19 H1          1.9330   -1.0275   -1.1987 H         1 MOL         0.1452
     20 H2          3.7589   -2.0752    0.0778 H         1 MOL         0.1411
     21 H3         -0.0760   -0.0363    2.4833 H         1 MOL         0.1635
     22 H4         -0.7875   -1.6610   -1.2464 H         1 MOL         0.1474
     23 H5         -2.6195   -0.6084   -2.5218 H         1 MOL         0.1556
     24 H6         -1.8312    3.1462   -0.5881 H         1 MOL         0.1677
     25 H7          1.0186   -0.0130    5.6083 H         1 MOL         0.4446
     26 H8          4.5640   -2.5813    2.0702 H         1 MOL         0.4264
@<TRIPOS>BOND
     1    1    6 ar
     2    1    2 ar
     3    2    3 ar
     4    3    4 ar
     5    4    5 ar
     6    5    6 ar
     7    6    7 1
     8    7   12 ar
     9    7    8 ar
    10    8    9 ar
    11    9   10 ar
    12   10   11 ar
    13   11   12 ar
    14   12   13 1
    15   10   14 1
    16    4   15 1
    17   15   16 2
    18   15   17 1
    19    3   18 1
    20    1   19 1
    21    2   20 1
    22    5   21 1
    23    8   22 1
    24    9   23 1
    25   11   24 1
    26   17   25 1
    27   18   26 1
