@<TRIPOS>MOLECULE
(2,2-dimethyl-3H-benzofuran-7-yl) N-methylcarbamate
   31    32     0     0     0
SMALL
USER_CHARGES

@<TRIPOS>ATOM
      1 C1          5.0724   -3.7412   -0.4515 C.3       1 MOL        -0.1013
      2 C2          3.7316   -4.0214   -1.1421 C.3       1 MOL         0.1423
      3 C3          2.6864   -4.5830   -0.1501 C.3       1 MOL        -0.0442
      4 C4          1.8586   -3.3747    0.0643 C.ar      1 MOL        -0.1516
      5 C5          0.8323   -3.1650    0.9679 C.ar      1 MOL        -0.0786
      6 C6          0.1674   -1.9365    0.9400 C.ar      1 MOL        -0.1596
      7 C7          0.5301   -0.9485    0.0103 C.ar      1 MOL        -0.0902
      8 C8          1.5628   -1.1767   -0.9007 C.ar      1 MOL         0.0873
      9 C9          2.2115   -2.3956   -0.8487 C.ar      1 MOL         0.1255
     10 O1          3.2389   -2.7594   -1.6786 O.3       1 MOL        -0.3037
     11 O2          1.9134   -0.2255   -1.8016 O.3       1 MOL        -0.3570
     12 C10         2.9091    0.6736   -1.3662 C.2       1 MOL         0.7415
     13 O3          3.4336    0.6180   -0.2578 O.2       1 MOL        -0.5661
     14 N1          3.1964    1.6025   -2.3451 N.am      1 MOL        -0.5594
     15 C11         4.1766    2.6516   -2.1873 C.3       1 MOL         0.0961
     16 C12         3.9419   -4.9731   -2.3209 C.3       1 MOL        -0.1013
     17 H1          5.4870   -4.6616   -0.0294 H         1 MOL         0.0492
     18 H2          5.7946   -3.3334   -1.1650 H         1 MOL         0.0492
     19 H3          4.9432   -3.0182    0.3594 H         1 MOL         0.0492
     20 H4          2.0750   -5.3744   -0.5972 H         1 MOL         0.0673
     21 H5          3.1382   -4.9542    0.7747 H         1 MOL         0.0673
     22 H6          0.5436   -3.9322    1.6782 H         1 MOL         0.1368
     23 H7         -0.6416   -1.7448    1.6398 H         1 MOL         0.1360
     24 H8         -0.0036   -0.0015    0.0040 H         1 MOL         0.1468
     25 H9          2.6914    1.5455   -3.2241 H         1 MOL         0.3320
     26 H10         5.1520    2.2982   -2.5236 H         1 MOL         0.0462
     27 H11         4.2436    2.9417   -1.1378 H         1 MOL         0.0462
     28 H12         3.8876    3.5211   -2.7794 H         1 MOL         0.0462
     29 H13         2.9892   -5.1697   -2.8084 H         1 MOL         0.0492
     30 H14         4.3623   -5.9113   -1.9646 H         1 MOL         0.0492
     31 H15         4.6255   -4.5235   -3.0382 H         1 MOL         0.0492
@<TRIPOS>BOND
     1    1    2 1
     2    2   10 1
     3    2    3 1
     4    3    4 1
     5    4    9 ar
     6    4    5 ar
     7    5    6 ar
     8    6    7 ar
     9    7    8 ar
    10    8    9 ar
    11    9   10 1
    12    8   11 1
    13   11   12 1
    14   12   13 2
    15   12   14 am
    16   14   15 1
    17    2   16 1
    18    1   17 1
    19    1   18 1
    20    1   19 1
    21    3   20 1
    22    3   21 1
    23    5   22 1
    24    6   23 1
    25    7   24 1
    26   14   25 1
    27   15   26 1
    28   15   27 1
    29   15   28 1
    30   16   29 1
    31   16   30 1
    32   16   31 1
