@<TRIPOS>MOLECULE
bromoform
    5     4     0     0     0
SMALL
USER_CHARGES

@<TRIPOS>ATOM
      1 C1         -0.1053    0.0140   -0.0443 C.3       1 MOL         0.0542
      2 Br1         0.1792   -1.9017    0.1250 Br        1 MOL        -0.0622
      3 Br2        -0.1068    0.9104    1.6807 Br        1 MOL        -0.0622
      4 Br3         1.1377    0.8320   -1.2955 Br        1 MOL        -0.0622
      5 H1         -1.1047    0.1453   -0.4659 H         1 MOL         0.1325
@<TRIPOS>BOND
     1    1    2 1
     2    1    3 1
     3    1    4 1
     4    1    5 1
