@<TRIPOS>MOLECULE
heptan-2-one
   22    21     0     0     0
SMALL
USER_CHARGES

@<TRIPOS>ATOM
      1 C1         -3.2943    0.4136    5.9540 C.3       1 MOL        -0.0921
      2 C2         -2.7302    1.1733    4.7639 C.3       1 MOL        -0.0798
      3 C3         -1.4004    0.5789    4.2991 C.3       1 MOL        -0.0776
      4 C4         -0.8378    1.3482    3.1007 C.3       1 MOL        -0.0756
      5 C5          0.4906    0.7790    2.6121 C.3       1 MOL        -0.1805
      6 C6          1.0568    1.5332    1.4257 C.2       1 MOL         0.5633
      7 O1          0.4663    2.4996    0.9428 O.2       1 MOL        -0.5327
      8 C7          2.3782    1.0693    0.8716 C.3       1 MOL        -0.2041
      9 H1         -4.2458    0.8456    6.2801 H         1 MOL         0.0330
     10 H2         -3.4703   -0.6330    5.6866 H         1 MOL         0.0330
     11 H3         -2.5990    0.4360    6.7992 H         1 MOL         0.0330
     12 H4         -2.5917    2.2246    5.0418 H         1 MOL         0.0408
     13 H5         -3.4568    1.1470    3.9435 H         1 MOL         0.0408
     14 H6         -1.5479   -0.4741    4.0321 H         1 MOL         0.0367
     15 H7         -0.6786    0.6054    5.1243 H         1 MOL         0.0367
     16 H8         -1.5727    1.3503    2.2875 H         1 MOL         0.0545
     17 H9         -0.6808    2.3949    3.3884 H         1 MOL         0.0545
     18 H10         0.3773   -0.2749    2.3331 H         1 MOL         0.0636
     19 H11         1.2345    0.8139    3.4162 H         1 MOL         0.0636
     20 H12         2.2125    0.3186    0.0960 H         1 MOL         0.0630
     21 H13         2.9275    1.9209    0.4624 H         1 MOL         0.0630
     22 H14         2.9760    0.6274    1.6738 H         1 MOL         0.0630
@<TRIPOS>BOND
     1    1    2 1
     2    2    3 1
     3    3    4 1
     4    4    5 1
     5    5    6 1
     6    6    7 2
     7    6    8 1
     8    1    9 1
     9    1   10 1
    10    1   11 1
    11    2   12 1
    12    2   13 1
    13    3   14 1
    14    3   15 1
    15    4   16 1
    16    4   17 1
    17    5   18 1
    18    5   19 1
    19    8   20 1
    20    8   21 1
    21    8   22 1
