@<TRIPOS>MOLECULE
(2S)-1-butoxypropan-2-ol
   25    24     0     0     0
SMALL
USER_CHARGES

@<TRIPOS>ATOM
      1 C1          0.3901   -1.0211   -0.0846 C.3       1 MOL        -0.0933
      2 C2         -0.5795   -2.0237    0.5202 C.3       1 MOL        -0.0775
      3 C3         -1.9307   -1.9925   -0.1885 C.3       1 MOL        -0.0799
      4 C4         -2.9047   -2.9950    0.4140 C.3       1 MOL         0.1311
      5 O1         -4.1377   -2.9159   -0.2877 O.3       1 MOL        -0.4277
      6 C5         -5.0930   -3.8319    0.2302 C.3       1 MOL         0.1321
      7 C6         -6.3888   -3.6992   -0.5611 C.3       1 MOL         0.1399
      8 H1         -6.5918   -2.6445   -0.7774 H         1 MOL         0.0452
      9 C7         -7.5613   -4.3269    0.1773 C.3       1 MOL        -0.1285
     10 O2         -6.2204   -4.3667   -1.8108 O.3       1 MOL        -0.6067
     11 H2          1.3561   -1.0503    0.4296 H         1 MOL         0.0315
     12 H3          0.5590   -1.2299   -1.1458 H         1 MOL         0.0315
     13 H4         -0.0105   -0.0064    0.0025 H         1 MOL         0.0315
     14 H5         -0.1467   -3.0286    0.4523 H         1 MOL         0.0467
     15 H6         -0.7118   -1.7987    1.5849 H         1 MOL         0.0467
     16 H7         -2.3650   -0.9865   -0.1343 H         1 MOL         0.0471
     17 H8         -1.8040   -2.2066   -1.2572 H         1 MOL         0.0471
     18 H9         -2.5190   -4.0157    0.3261 H         1 MOL         0.0296
     19 H10        -3.0903   -2.7735    1.4699 H         1 MOL         0.0296
     20 H11        -5.2503   -3.5945    1.2883 H         1 MOL         0.0399
     21 H12        -4.6806   -4.8426    0.1416 H         1 MOL         0.0399
     22 H13        -8.4825   -4.2219   -0.4059 H         1 MOL         0.0466
     23 H14        -7.3891   -5.3911    0.3651 H         1 MOL         0.0466
     24 H15        -7.7366   -3.8240    1.1348 H         1 MOL         0.0466
     25 H16        -5.4831   -3.9264   -2.2602 H         1 MOL         0.4041
@<TRIPOS>BOND
     1    1    2 1
     2    2    3 1
     3    3    4 1
     4    4    5 1
     5    5    6 1
     6    6    7 1
     7    7    8 1
     8    7    9 1
     9    7   10 1
    10    1   11 1
    11    1   12 1
    12    1   13 1
    13    2   14 1
    14    2   15 1
    15    3   16 1
    16    3   17 1
    17    4   18 1
    18    4   19 1
    19    6   20 1
    20    6   21 1
    21    9   22 1
    22    9   23 1
    23    9   24 1
    24   10   25 1
