@<TRIPOS>MOLECULE
5-chloro-1H-pyrimidine-2,4-dione
   12    12     0     0     0
SMALL
USER_CHARGES

@<TRIPOS>ATOM
      1 C1          0.6683    1.3560   -0.0606 C.2       1 MOL         0.0492
      2 C2         -0.2942    0.9374    0.7650 C.2       1 MOL        -0.1756
      3 C3         -0.8091   -0.4513    0.6456 C.2       1 MOL         0.7193
      4 O1         -1.6923   -0.8865    1.3791 O.2       1 MOL        -0.5823
      5 N1         -0.2056   -1.2004   -0.3593 N.am      1 MOL        -0.5844
      6 C4          0.8025   -0.7659   -1.2254 C.2       1 MOL         0.8036
      7 O2          1.2905   -1.4901   -2.0938 O.2       1 MOL        -0.6276
      8 N2          1.2054    0.5461   -1.0239 N.am      1 MOL        -0.4652
      9 Cl1        -0.9656    1.9548    1.9733 Cl        1 MOL        -0.0280
     10 H1          1.0829    2.3565   -0.0200 H         1 MOL         0.1722
     11 H2         -0.5290   -2.1567   -0.4754 H         1 MOL         0.3586
     12 H3          1.9346    0.9331   -1.6155 H         1 MOL         0.3603
@<TRIPOS>BOND
     1    1    8 1
     2    1    2 2
     3    2    3 1
     4    3    4 2
     5    3    5 am
     6    5    6 am
     7    6    7 2
     8    6    8 am
     9    2    9 1
    10    1   10 1
    11    5   11 1
    12    8   12 1
