@<TRIPOS>MOLECULE
1,2-dimethoxyethane
   16    15     0     0     0
SMALL
USER_CHARGES

@<TRIPOS>ATOM
      1 C1          0.3042    0.8204    2.4305 C.3       1 MOL         0.1143
      2 O1         -0.8526    0.2362    1.8472 O.3       1 MOL        -0.4060
      3 C2         -0.8936    0.4506    0.4416 C.3       1 MOL         0.1270
      4 C3         -2.1461   -0.1936   -0.1209 C.3       1 MOL         0.1270
      5 O2         -2.1145   -1.5886    0.1552 O.3       1 MOL        -0.4060
      6 C4         -3.2680   -2.2457   -0.3510 C.3       1 MOL         0.1143
      7 H1          0.3025    0.6364    3.5077 H         1 MOL         0.0323
      8 H2          0.3093    1.8954    2.2337 H         1 MOL         0.0323
      9 H3          1.1937    0.3665    1.9872 H         1 MOL         0.0323
     10 H4         -0.8901    1.5299    0.2612 H         1 MOL         0.0338
     11 H5          0.0000    0.0000    0.0000 H         1 MOL         0.0338
     12 H6         -2.2043   -0.0621   -1.2059 H         1 MOL         0.0338
     13 H7         -3.0385    0.2289    0.3500 H         1 MOL         0.0338
     14 H8         -3.2066   -3.3103   -0.1199 H         1 MOL         0.0323
     15 H9         -3.3240   -2.0949   -1.4303 H         1 MOL         0.0323
     16 H10        -4.1519   -1.8184    0.1248 H         1 MOL         0.0323
@<TRIPOS>BOND
     1    1    2 1
     2    2    3 1
     3    3    4 1
     4    4    5 1
     5    5    6 1
     6    1    7 1
     7    1    8 1
     8    1    9 1
     9    3   10 1
    10    3   11 1
    11    4   12 1
    12    4   13 1
    13    6   14 1
    14    6   15 1
    15    6   16 1
