@<TRIPOS>MOLECULE
trimethoxymethane
   17    16     0     0     0
SMALL
USER_CHARGES

@<TRIPOS>ATOM
      1 C1         -0.6402    0.3195   -0.8311 C.3       1 MOL         0.1239
      2 O1          0.0234    0.0004   -2.0470 O.3       1 MOL        -0.4383
      3 C2         -0.6863    0.4751   -3.1994 C.3       1 MOL         0.4999
      4 O2         -0.2849   -0.2223   -4.3889 O.3       1 MOL        -0.4383
      5 C3         -0.9099   -1.4931   -4.5116 C.3       1 MOL         0.1239
      6 O3         -0.5679    1.8974   -3.3756 O.3       1 MOL        -0.4383
      7 C4          0.7755    2.3323   -3.5425 C.3       1 MOL         0.1239
      8 H1         -0.0605   -0.0629    0.0125 H         1 MOL         0.0401
      9 H2         -1.6386   -0.1251   -0.8323 H         1 MOL         0.0401
     10 H3         -0.7272    1.4054   -0.7481 H         1 MOL         0.0401
     11 H4         -1.7581    0.2871   -3.0579 H         1 MOL         0.0827
     12 H5         -0.5687   -1.9743   -5.4292 H         1 MOL         0.0401
     13 H6         -1.9926   -1.3608   -4.5325 H         1 MOL         0.0401
     14 H7         -0.6316   -2.1042   -3.6520 H         1 MOL         0.0401
     15 H8          0.7890    3.4155   -3.6700 H         1 MOL         0.0401
     16 H9          1.2060    1.8417   -4.4166 H         1 MOL         0.0401
     17 H10         1.3439    2.0609   -2.6521 H         1 MOL         0.0401
@<TRIPOS>BOND
     1    1    2 1
     2    2    3 1
     3    3    4 1
     4    4    5 1
     5    3    6 1
     6    6    7 1
     7    1    8 1
     8    1    9 1
     9    1   10 1
    10    3   11 1
    11    5   12 1
    12    5   13 1
    13    5   14 1
    14    7   15 1
    15    7   16 1
    16    7   17 1
