@<TRIPOS>MOLECULE
1-bromobutane
   14    13     0     0     0
SMALL
USER_CHARGES

@<TRIPOS>ATOM
      1 C1         -0.7538    0.4800   -1.7634 C.3       1 MOL        -0.0929
      2 C2          0.0333   -0.3376   -0.7515 C.3       1 MOL        -0.0812
      3 C3         -0.0289    0.2854    0.6426 C.3       1 MOL        -0.0817
      4 C4          0.7607   -0.5398    1.6444 C.3       1 MOL        -0.0067
      5 Br1         0.6573    0.2849    3.4046 Br        1 MOL        -0.1815
      6 H1         -0.7036    0.0263   -2.7583 H         1 MOL         0.0359
      7 H2         -1.8062    0.5362   -1.4686 H         1 MOL         0.0359
      8 H3         -0.3648    1.5010   -1.8310 H         1 MOL         0.0359
      9 H4          1.0764   -0.4095   -1.0810 H         1 MOL         0.0406
     10 H5         -0.3689   -1.3571   -0.7221 H         1 MOL         0.0406
     11 H6          0.3665    1.3083    0.6051 H         1 MOL         0.0560
     12 H7         -1.0755    0.3636    0.9630 H         1 MOL         0.0560
     13 H8          1.8218   -0.5922    1.3860 H         1 MOL         0.0715
     14 H9          0.3594   -1.5516    1.7492 H         1 MOL         0.0715
@<TRIPOS>BOND
     1    1    2 1
     2    2    3 1
     3    3    4 1
     4    4    5 1
     5    1    6 1
     6    1    7 1
     7    1    8 1
     8    2    9 1
     9    2   10 1
    10    3   11 1
    11    3   12 1
    12    4   13 1
    13    4   14 1
