@<TRIPOS>MOLECULE
1-methyl-2-nitro-benzene
   17    17     0     0     0
SMALL
USER_CHARGES

@<TRIPOS>ATOM
      1 C1          1.9618   -1.0304   -1.6052 C.3       1 MOL        -0.0741
      2 C2          1.8851   -1.0363   -0.1124 C.ar      1 MOL        -0.0241
      3 C3          2.9210   -1.6309    0.6081 C.ar      1 MOL        -0.1310
      4 C4          2.8783   -1.6520    2.0022 C.ar      1 MOL        -0.0986
      5 C5          1.7997   -1.0786    2.6757 C.ar      1 MOL        -0.1307
      6 C6          0.7638   -0.4841    1.9551 C.ar      1 MOL        -0.0831
      7 C7          0.8066   -0.4630    0.5610 C.ar      1 MOL        -0.1487
      8 N1         -0.2607    0.1484   -0.1531 N.pl3     1 MOL         0.3054
      9 O1         -1.2451   -0.5520   -0.4879 O.2       1 MOL        -0.1971
     10 O2         -0.1853    1.3695   -0.4266 O.3       1 MOL        -0.1971
     11 H1          2.4775   -0.1289   -1.9500 H         1 MOL         0.0620
     12 H2          2.5016   -1.9095   -1.9724 H         1 MOL         0.0620
     13 H3          0.9605   -1.0569   -2.0481 H         1 MOL         0.0620
     14 H4          3.7658   -2.0803    0.0928 H         1 MOL         0.1463
     15 H5          3.6860   -2.1128    2.5633 H         1 MOL         0.1435
     16 H6          1.7672   -1.0949    3.7611 H         1 MOL         0.1472
     17 H7         -0.0716   -0.0433    2.4937 H         1 MOL         0.1562
@<TRIPOS>BOND
     1    1    2 1
     2    2    7 ar
     3    2    3 ar
     4    3    4 ar
     5    4    5 ar
     6    5    6 ar
     7    6    7 ar
     8    7    8 1
     9    8    9 2
    10    8   10 1
    11    1   11 1
    12    1   12 1
    13    1   13 1
    14    3   14 1
    15    4   15 1
    16    5   16 1
    17    6   17 1
