@<TRIPOS>MOLECULE
isopentyl acetate
   23    22     0     0     0
SMALL
USER_CHARGES

@<TRIPOS>ATOM
      1 C1         -0.2765   -3.2843   -0.8538 C.3       1 MOL        -0.0912
      2 C2         -0.6860   -1.8165   -0.9949 C.3       1 MOL        -0.0654
      3 C3          0.0168   -0.9791    0.0745 C.3       1 MOL        -0.0912
      4 C4         -0.3808   -1.3238   -2.4187 C.3       1 MOL        -0.1133
      5 C5         -1.1136   -2.0995   -3.5067 C.3       1 MOL         0.1367
      6 O1         -0.7556   -1.5583   -4.7723 O.3       1 MOL        -0.4460
      7 C6         -1.3358   -2.1521   -5.8587 C.2       1 MOL         0.6319
      8 O2         -2.1206   -3.0905   -5.8335 O.2       1 MOL        -0.5382
      9 C7         -0.8695   -1.4815   -7.1153 C.3       1 MOL        -0.1531
     10 H1         -0.7704   -3.9011   -1.6122 H         1 MOL         0.0343
     11 H2         -0.5452   -3.6794    0.1319 H         1 MOL         0.0343
     12 H3          0.8048   -3.4011   -0.9829 H         1 MOL         0.0343
     13 H4         -1.7682   -1.7520   -0.8249 H         1 MOL         0.0538
     14 H5         -0.2593    0.0779   -0.0040 H         1 MOL         0.0343
     15 H6          1.1049   -1.0522   -0.0285 H         1 MOL         0.0343
     16 H7         -0.2365   -1.3244    1.0813 H         1 MOL         0.0343
     17 H8          0.6985   -1.3957   -2.6079 H         1 MOL         0.0559
     18 H9         -0.6213   -0.2567   -2.5134 H         1 MOL         0.0559
     19 H10        -0.8318   -3.1570   -3.4897 H         1 MOL         0.0662
     20 H11        -2.1984   -2.0147   -3.3972 H         1 MOL         0.0662
     21 H12         0.0324   -1.9746   -7.4860 H         1 MOL         0.0753
     22 H13        -0.6784   -0.4230   -6.9218 H         1 MOL         0.0753
     23 H14        -1.6488   -1.5602   -7.8789 H         1 MOL         0.0753
@<TRIPOS>BOND
     1    1    2 1
     2    2    3 1
     3    2    4 1
     4    4    5 1
     5    5    6 1
     6    6    7 1
     7    7    8 2
     8    7    9 1
     9    1   10 1
    10    1   11 1
    11    1   12 1
    12    2   13 1
    13    3   14 1
    14    3   15 1
    15    3   16 1
    16    4   17 1
    17    4   18 1
    18    5   19 1
    19    5   20 1
    20    9   21 1
    21    9   22 1
    22    9   23 1
