@<TRIPOS>MOLECULE
5-(trifluoromethyl)-1H-pyrimidine-2,4-dione
   15    15     0     0     0
SMALL
USER_CHARGES

@<TRIPOS>ATOM
      1 C1          1.1618    1.5074    2.5831 C.2       1 MOL         0.1179
      2 C2          0.7828    0.3892    1.9521 C.2       1 MOL        -0.3674
      3 C3          1.5361   -0.8685    2.2312 C.2       1 MOL         0.7321
      4 O1          1.2394   -1.9284    1.6861 O.2       1 MOL        -0.5752
      5 N1          2.5780   -0.7394    3.1411 N.am      1 MOL        -0.5843
      6 C4          2.9645    0.4331    3.7937 C.2       1 MOL         0.8050
      7 O2          3.9018    0.4728    4.5912 O.2       1 MOL        -0.6129
      8 N2          2.2042    1.5449    3.4677 N.am      1 MOL        -0.4595
      9 C5         -0.3527    0.3290    0.9824 C.3       1 MOL         0.7251
     10 F1         -0.9310    1.5398    0.8360 F         1 MOL        -0.2292
     11 F2          0.0668   -0.0757   -0.2350 F         1 MOL        -0.2292
     12 F3         -1.3050   -0.5337    1.3960 F         1 MOL        -0.2292
     13 H1          0.6610    2.4560    2.4288 H         1 MOL         0.1794
     14 H2          3.1104   -1.5787    3.3526 H         1 MOL         0.3622
     15 H3          2.4248    2.4360    3.9024 H         1 MOL         0.3653
@<TRIPOS>BOND
     1    1    8 1
     2    1    2 2
     3    2    3 1
     4    3    4 2
     5    3    5 am
     6    5    6 am
     7    6    7 2
     8    6    8 am
     9    2    9 1
    10    9   10 1
    11    9   11 1
    12    9   12 1
    13    1   13 1
    14    5   14 1
    15    8   15 1
