@<TRIPOS>MOLECULE
2,6-dimethylnaphthalene
   24    25     0     0     0
SMALL
USER_CHARGES

@<TRIPOS>ATOM
      1 C1         -1.8844   -1.7015    0.9273 C.3       1 MOL        -0.0539
      2 C2         -0.4966   -2.0341    0.4940 C.ar      1 MOL        -0.0769
      3 C3          0.3500   -1.0275    0.0392 C.ar      1 MOL        -0.1236
      4 C4          1.6484   -1.3369   -0.3665 C.ar      1 MOL        -0.1163
      5 C5          2.1168   -2.6602   -0.3222 C.ar      1 MOL        -0.0355
      6 C6          3.4207   -2.9899   -0.7267 C.ar      1 MOL        -0.1207
      7 C7          3.8693   -4.3100   -0.6758 C.ar      1 MOL        -0.0769
      8 C8          3.0228   -5.3167   -0.2210 C.ar      1 MOL        -0.1236
      9 C9          1.7243   -5.0072    0.1848 C.ar      1 MOL        -0.1163
     10 C10         1.2560   -3.6839    0.1403 C.ar      1 MOL        -0.0355
     11 C11        -0.0479   -3.3542    0.5448 C.ar      1 MOL        -0.1207
     12 C12         5.2572   -4.6426   -1.1090 C.3       1 MOL        -0.0538
     13 H1         -1.8969   -1.4668    1.9960 H         1 MOL         0.0442
     14 H2         -2.2719   -0.8413    0.3714 H         1 MOL         0.0442
     15 H3         -2.5637   -2.5400    0.7408 H         1 MOL         0.0442
     16 H4          0.0085    0.0035   -0.0023 H         1 MOL         0.1318
     17 H5          2.2925   -0.5341   -0.7194 H         1 MOL         0.1313
     18 H6          4.0933   -2.2121   -1.0846 H         1 MOL         0.1311
     19 H7          3.3649   -6.3474   -0.1776 H         1 MOL         0.1318
     20 H8          1.0797   -5.8102    0.5361 H         1 MOL         0.1313
     21 H9         -0.7203   -4.1319    0.9032 H         1 MOL         0.1311
     22 H10         5.9484   -4.5767   -0.2599 H         1 MOL         0.0442
     23 H11         5.3124   -5.6571   -1.5247 H         1 MOL         0.0442
     24 H12         5.6042   -3.9583   -1.8942 H         1 MOL         0.0442
@<TRIPOS>BOND
     1    1    2 1
     2    2   11 ar
     3    2    3 ar
     4    3    4 ar
     5    4    5 ar
     6    5   10 ar
     7    5    6 ar
     8    6    7 ar
     9    7    8 ar
    10    8    9 ar
    11    9   10 ar
    12   10   11 ar
    13    7   12 1
    14    1   13 1
    15    1   14 1
    16    1   15 1
    17    3   16 1
    18    4   17 1
    19    6   18 1
    20    8   19 1
    21    9   20 1
    22   11   21 1
    23   12   22 1
    24   12   23 1
    25   12   24 1
