@<TRIPOS>MOLECULE
3-methylbutan-2-one
   16    15     0     0     0
SMALL
USER_CHARGES

@<TRIPOS>ATOM
      1 C1          1.7494    3.8113    0.3319 C.3       1 MOL        -0.0863
      2 C2          0.2943    3.4405    0.5922 C.3       1 MOL        -0.1640
      3 C3         -0.6398    4.5643    0.1508 C.3       1 MOL        -0.0863
      4 C4         -0.0457    2.1350   -0.1210 C.2       1 MOL         0.5663
      5 O1         -0.4800    2.1062   -1.2726 O.2       1 MOL        -0.5313
      6 C5          0.2065    0.8574    0.6395 C.3       1 MOL        -0.2031
      7 H1          2.4257    3.0087    0.6466 H         1 MOL         0.0428
      8 H2          1.9192    4.0043   -0.7325 H         1 MOL         0.0428
      9 H3          2.0321    4.7135    0.8841 H         1 MOL         0.0428
     10 H4          0.1432    3.2810    1.6665 H         1 MOL         0.0581
     11 H5         -1.6854    4.2969    0.3382 H         1 MOL         0.0428
     12 H6         -0.5383    4.7740   -0.9198 H         1 MOL         0.0428
     13 H7         -0.4232    5.4873    0.6985 H         1 MOL         0.0428
     14 H8         -0.6833    0.5809    1.2093 H         1 MOL         0.0632
     15 H9          1.0403    1.0022    1.3324 H         1 MOL         0.0632
     16 H10         0.4720    0.0596   -0.0585 H         1 MOL         0.0632
@<TRIPOS>BOND
     1    1    2 1
     2    2    3 1
     3    2    4 1
     4    4    5 2
     5    4    6 1
     6    1    7 1
     7    1    8 1
     8    1    9 1
     9    2   10 1
    10    3   11 1
    11    3   12 1
    12    3   13 1
    13    6   14 1
    14    6   15 1
    15    6   16 1
