@<TRIPOS>MOLECULE
cyclohexanone
   17    17     0     0     0
SMALL
USER_CHARGES

@<TRIPOS>ATOM
      1 C1          0.9260    0.3338   -1.5529 C.3       1 MOL        -0.0830
      2 C2          1.1135    1.2057   -0.3132 C.3       1 MOL        -0.0725
      3 C3         -0.1457    1.2507    0.5414 C.3       1 MOL        -0.1811
      4 C4         -0.6339   -0.1479    0.8463 C.2       1 MOL         0.5690
      5 O1         -1.0070   -0.4694    1.9735 O.2       1 MOL        -0.5329
      6 C5         -0.7630   -1.0895   -0.3301 C.3       1 MOL        -0.1811
      7 C6          0.5101   -1.0835   -1.1650 C.3       1 MOL        -0.0725
      8 H1          1.8619    0.2989   -2.1219 H         1 MOL         0.0450
      9 H2          0.1661    0.7776   -2.2073 H         1 MOL         0.0450
     10 H3          1.9454    0.8088    0.2822 H         1 MOL         0.0474
     11 H4          1.3906    2.2222   -0.6141 H         1 MOL         0.0474
     12 H5          0.0616    1.7718    1.4817 H         1 MOL         0.0687
     13 H6         -0.9500    1.7853    0.0243 H         1 MOL         0.0687
     14 H7         -0.9604   -2.1011    0.0393 H         1 MOL         0.0687
     15 H8         -1.6236   -0.7697   -0.9277 H         1 MOL         0.0687
     16 H9          1.3226   -1.5529   -0.5961 H         1 MOL         0.0474
     17 H10         0.3609   -1.6856   -2.0681 H         1 MOL         0.0474
@<TRIPOS>BOND
     1    1    7 1
     2    1    2 1
     3    2    3 1
     4    3    4 1
     5    4    5 2
     6    4    6 1
     7    6    7 1
     8    1    8 1
     9    1    9 1
    10    2   10 1
    11    2   11 1
    12    3   12 1
    13    3   13 1
    14    6   14 1
    15    6   15 1
    16    7   16 1
    17    7   17 1
