@<TRIPOS>MOLECULE
1-amino-4-hydroxy-anthracene-9,10-dione
   27    29     0     0     0
SMALL
USER_CHARGES

@<TRIPOS>ATOM
      1 C1          1.2904   -1.6865   -0.3516 C.ar      1 MOL        -0.1213
      2 C2          0.9563   -0.4630    0.2256 C.ar      1 MOL        -0.1170
      3 C3          1.8484    0.1684    1.0928 C.ar      1 MOL        -0.0912
      4 C4          3.0812   -0.4277    1.3842 C.ar      1 MOL        -0.1207
      5 C5          3.4160   -1.6538    0.8057 C.ar      1 MOL        -0.1310
      6 C6          2.5179   -2.2839   -0.0640 C.ar      1 MOL        -0.0882
      7 C7          4.7134   -2.2938    1.1043 C.2       1 MOL         0.6021
      8 O1          4.9722   -3.3687    0.5779 O.2       1 MOL        -0.5711
      9 C8          5.6516   -1.6180    2.0237 C.ar      1 MOL        -0.1881
     10 C9          6.8845   -2.2140    2.3149 C.ar      1 MOL         0.2025
     11 C10         7.7766   -1.5826    3.1822 C.ar      1 MOL        -0.1578
     12 C11         7.4425   -0.3591    3.7594 C.ar      1 MOL        -0.1496
     13 C12         6.2150    0.2382    3.4720 C.ar      1 MOL         0.1144
     14 C13         5.3168   -0.3919    2.6022 C.ar      1 MOL        -0.1158
     15 C14         4.0194    0.2481    2.3036 C.2       1 MOL         0.5830
     16 O2          3.7024    1.3229    2.7975 O.2       1 MOL        -0.4968
     17 O3          5.9497    1.4347    4.0695 O.3       1 MOL        -0.4586
     18 N1          7.2931   -3.4522    1.7683 N.pl3     1 MOL        -0.8424
     19 H1          0.5943   -2.1752   -1.0273 H         1 MOL         0.1409
     20 H2          0.0003    0.0004   -0.0008 H         1 MOL         0.1396
     21 H3          1.5631    1.1221    1.5285 H         1 MOL         0.1585
     22 H4          2.7524   -3.2380   -0.5285 H         1 MOL         0.1586
     23 H5          8.7374   -2.0343    3.4168 H         1 MOL         0.1406
     24 H6          8.1448    0.1239    4.4339 H         1 MOL         0.1406
     25 H7          6.6941    1.6997    4.6315 H         1 MOL         0.4139
     26 H8          6.6612   -3.9547    1.1813 H         1 MOL         0.4275
     27 H9          8.1657   -3.8436    2.0548 H         1 MOL         0.4275
@<TRIPOS>BOND
     1    1    6 ar
     2    1    2 ar
     3    2    3 ar
     4    3    4 ar
     5    4   15 1
     6    4    5 ar
     7    5    6 ar
     8    5    7 1
     9    7    8 2
    10    7    9 1
    11    9   14 ar
    12    9   10 ar
    13   10   11 ar
    14   11   12 ar
    15   12   13 ar
    16   13   14 ar
    17   14   15 1
    18   15   16 2
    19   13   17 1
    20   10   18 1
    21    1   19 1
    22    2   20 1
    23    3   21 1
    24    6   22 1
    25   11   23 1
    26   12   24 1
    27   17   25 1
    28   18   26 1
    29   18   27 1
