@<TRIPOS>MOLECULE
pentyl propanoate
   26    25     0     0     0
SMALL
USER_CHARGES

@<TRIPOS>ATOM
      1 C1          0.7898   -0.3889    0.6495 C.3       1 MOL        -0.0916
      2 C2          1.6171   -1.4421   -0.0701 C.3       1 MOL        -0.0800
      3 C3          2.2938   -0.8687   -1.3148 C.3       1 MOL        -0.0790
      4 C4          3.1237   -1.9294   -2.0346 C.3       1 MOL        -0.1093
      5 C5          3.8013   -1.3663   -3.2758 C.3       1 MOL         0.1423
      6 O1          4.5541   -2.3990   -3.8966 O.3       1 MOL        -0.4660
      7 C6          5.2282   -2.0458   -5.0366 C.2       1 MOL         0.6386
      8 O2          5.2289   -0.9337   -5.5462 O.2       1 MOL        -0.5098
      9 C7          5.9735   -3.2478   -5.5677 C.3       1 MOL        -0.1403
     10 C8          6.7458   -2.9271   -6.8355 C.3       1 MOL        -0.0941
     11 H1          0.3090   -0.8081    1.5392 H         1 MOL         0.0334
     12 H2          1.4137    0.4548    0.9610 H         1 MOL         0.0334
     13 H3          0.0059   -0.0059   -0.0114 H         1 MOL         0.0334
     14 H4          0.9678   -2.2795   -0.3511 H         1 MOL         0.0366
     15 H5          2.3748   -1.8355    0.6176 H         1 MOL         0.0366
     16 H6          1.5325   -0.4720   -1.9975 H         1 MOL         0.0477
     17 H7          2.9393   -0.0293   -1.0281 H         1 MOL         0.0477
     18 H8          2.4898   -2.7778   -2.3208 H         1 MOL         0.0466
     19 H9          3.8852   -2.3389   -1.3593 H         1 MOL         0.0466
     20 H10         4.4811   -0.5494   -3.0134 H         1 MOL         0.0658
     21 H11         3.0602   -0.9971   -3.9918 H         1 MOL         0.0658
     22 H12         6.6703   -3.5923   -4.7963 H         1 MOL         0.0774
     23 H13         5.2480   -4.0411   -5.7766 H         1 MOL         0.0774
     24 H14         7.2790   -3.8093   -7.2052 H         1 MOL         0.0469
     25 H15         6.0647   -2.5849   -7.6206 H         1 MOL         0.0469
     26 H16         7.4856   -2.1398   -6.6567 H         1 MOL         0.0469
@<TRIPOS>BOND
     1    1    2 1
     2    2    3 1
     3    3    4 1
     4    4    5 1
     5    5    6 1
     6    6    7 1
     7    7    8 2
     8    7    9 1
     9    9   10 1
    10    1   11 1
    11    1   12 1
    12    1   13 1
    13    2   14 1
    14    2   15 1
    15    3   16 1
    16    3   17 1
    17    4   18 1
    18    4   19 1
    19    5   20 1
    20    5   21 1
    21    9   22 1
    22    9   23 1
    23   10   24 1
    24   10   25 1
    25   10   26 1
