@<TRIPOS>MOLECULE
2,3,4-trimethylpentane
   26    25     0     0     0
SMALL
USER_CHARGES

@<TRIPOS>ATOM
      1 C1          0.0591    0.7129   -2.0778 C.3       1 MOL        -0.0900
      2 C2          0.9437    0.3198   -0.8916 C.3       1 MOL        -0.0646
      3 C3          2.1524    1.2625   -0.8189 C.3       1 MOL        -0.0900
      4 C4          0.1743    0.2355    0.4654 C.3       1 MOL        -0.0521
      5 C5         -0.4691    1.5805    0.8462 C.3       1 MOL        -0.0911
      6 C6         -0.8811   -0.9188    0.5146 C.3       1 MOL        -0.0646
      7 C7         -0.3800   -2.2047   -0.1554 C.3       1 MOL        -0.0900
      8 C8         -1.2974   -1.2588    1.9536 C.3       1 MOL        -0.0900
      9 H1         -0.8164    0.0620   -2.1639 H         1 MOL         0.0331
     10 H2         -0.3050    1.7397   -1.9595 H         1 MOL         0.0331
     11 H3          0.6103    0.6731   -3.0214 H         1 MOL         0.0331
     12 H4          1.3622   -0.6706   -1.1059 H         1 MOL         0.0450
     13 H5          2.8025    1.0022    0.0229 H         1 MOL         0.0331
     14 H6          1.8540    2.3101   -0.7160 H         1 MOL         0.0331
     15 H7          2.7498    1.1845   -1.7342 H         1 MOL         0.0331
     16 H8          0.9261    0.0165    1.2375 H         1 MOL         0.0438
     17 H9         -1.0077    1.5226    1.7956 H         1 MOL         0.0337
     18 H10        -1.2087    1.8900    0.1013 H         1 MOL         0.0337
     19 H11         0.2801    2.3746    0.9256 H         1 MOL         0.0337
     20 H12        -1.7871   -0.5982   -0.0143 H         1 MOL         0.0450
     21 H13        -1.1387   -2.9937   -0.1057 H         1 MOL         0.0331
     22 H14        -0.1634   -2.0481   -1.2160 H         1 MOL         0.0331
     23 H15         0.5264   -2.5778    0.3330 H         1 MOL         0.0331
     24 H16        -2.0349   -2.0661    1.9789 H         1 MOL         0.0331
     25 H17        -1.7220   -0.3856    2.4599 H         1 MOL         0.0331
     26 H18        -0.4371   -1.6025    2.5388 H         1 MOL         0.0331
@<TRIPOS>BOND
     1    1    2 1
     2    2    3 1
     3    2    4 1
     4    4    5 1
     5    4    6 1
     6    6    7 1
     7    6    8 1
     8    1    9 1
     9    1   10 1
    10    1   11 1
    11    2   12 1
    12    3   13 1
    13    3   14 1
    14    3   15 1
    15    4   16 1
    16    5   17 1
    17    5   18 1
    18    5   19 1
    19    6   20 1
    20    7   21 1
    21    7   22 1
    22    7   23 1
    23    8   24 1
    24    8   25 1
    25    8   26 1
