@<TRIPOS>MOLECULE
2-methoxy-2-methyl-propane
   18    17     0     0     0
SMALL
USER_CHARGES

@<TRIPOS>ATOM
      1 C1         -0.4645   -0.0646    0.9894 C.3       1 MOL        -0.1079
      2 C2          0.5609   -0.3988    2.0719 C.3       1 MOL         0.1472
      3 C3          1.6273    0.6910    2.1567 C.3       1 MOL        -0.1079
      4 C4          1.2036   -1.7604    1.8118 C.3       1 MOL        -0.1079
      5 O1         -0.1082   -0.4451    3.3327 O.3       1 MOL        -0.4177
      6 C5         -1.1266   -1.4328    3.3392 C.3       1 MOL         0.1165
      7 H1         -1.2317   -0.8445    0.9253 H         1 MOL         0.0428
      8 H2         -0.9578    0.8935    1.1830 H         1 MOL         0.0428
      9 H3          0.0103   -0.0162    0.0027 H         1 MOL         0.0428
     10 H4          2.3651    0.4554    2.9322 H         1 MOL         0.0428
     11 H5          1.1816    1.6524    2.4367 H         1 MOL         0.0428
     12 H6          2.1531    0.8168    1.2047 H         1 MOL         0.0428
     13 H7          1.9391   -2.0003    2.5882 H         1 MOL         0.0428
     14 H8          0.4566   -2.5604    1.7845 H         1 MOL         0.0428
     15 H9          1.7476   -1.7592    0.8603 H         1 MOL         0.0428
     16 H10        -1.6164   -1.4415    4.3149 H         1 MOL         0.0310
     17 H11        -0.6855   -2.4095    3.1298 H         1 MOL         0.0310
     18 H12        -1.8583   -1.1899    2.5664 H         1 MOL         0.0310
@<TRIPOS>BOND
     1    1    2 1
     2    2    3 1
     3    2    4 1
     4    2    5 1
     5    5    6 1
     6    1    7 1
     7    1    8 1
     8    1    9 1
     9    3   10 1
    10    3   11 1
    11    3   12 1
    12    4   13 1
    13    4   14 1
    14    4   15 1
    15    6   16 1
    16    6   17 1
    17    6   18 1
