@<TRIPOS>MOLECULE
butane
   14    13     0     0     0
SMALL
USER_CHARGES

@<TRIPOS>ATOM
      1 C1          0.4048   -0.7298    0.7083 C.3       1 MOL        -0.0921
      2 C2          1.6372   -0.1820    1.4100 C.3       1 MOL        -0.0804
      3 C3          1.3160    1.0885    2.1945 C.3       1 MOL        -0.0804
      4 C4          2.5483    1.6364    2.8963 C.3       1 MOL        -0.0921
      5 H1          0.6439   -1.6398    0.1488 H         1 MOL         0.0324
      6 H2         -0.3842   -0.9665    1.4292 H         1 MOL         0.0324
      7 H3          0.0102    0.0088    0.0033 H         1 MOL         0.0324
      8 H4          2.0358   -0.9470    2.0866 H         1 MOL         0.0377
      9 H5          2.4129    0.0268    0.6640 H         1 MOL         0.0377
     10 H6          0.9176    1.8536    1.5178 H         1 MOL         0.0377
     11 H7          0.5402    0.8797    2.9404 H         1 MOL         0.0377
     12 H8          2.3090    2.5464    3.4558 H         1 MOL         0.0324
     13 H9          3.3241    1.8815    2.1641 H         1 MOL         0.0324
     14 H10         2.9610    0.9017    3.5952 H         1 MOL         0.0324
@<TRIPOS>BOND
     1    1    2 1
     2    2    3 1
     3    3    4 1
     4    1    5 1
     5    1    6 1
     6    1    7 1
     7    2    8 1
     8    2    9 1
     9    3   10 1
    10    3   11 1
    11    4   12 1
    12    4   13 1
    13    4   14 1
