@<TRIPOS>MOLECULE
N-butyl-N-ethyl-2,6-dinitro-4-(trifluoromethyl)aniline
   39    39     0     0     0
SMALL
USER_CHARGES

@<TRIPOS>ATOM
      1 C1         -5.9010    4.6440    1.6642 C.3       1 MOL        -0.0939
      2 C2         -4.6961    3.7219    1.5608 C.3       1 MOL        -0.0755
      3 C3         -3.5857    4.1433    2.5260 C.3       1 MOL        -0.1079
      4 C4         -2.3629    3.2356    2.4445 C.3       1 MOL         0.2381
      5 N1         -1.3228    3.6343    3.3520 N.pl3     1 MOL        -0.7890
      6 C5         -0.7513    4.9796    3.2252 C.3       1 MOL         0.2365
      7 C6         -0.1372    5.1463    1.8888 C.3       1 MOL        -0.1241
      8 C7         -0.8532    2.7745    4.3598 C.ar      1 MOL         0.3006
      9 C8          0.2105    1.9105    4.0997 C.ar      1 MOL        -0.1755
     10 C9          0.6765    1.0571    5.0999 C.ar      1 MOL        -0.0153
     11 C10         0.0788    1.0678    6.3601 C.ar      1 MOL        -0.1736
     12 C11        -0.9850    1.9318    6.6202 C.ar      1 MOL        -0.0153
     13 C12        -1.4509    2.7852    5.6200 C.ar      1 MOL        -0.1755
     14 N2         -2.5379    3.6559    5.9147 N.pl3     1 MOL         0.3191
     15 O1         -3.7070    3.2538    5.7107 O.2       1 MOL        -0.1787
     16 O2         -2.2918    4.7975    6.3689 O.3       1 MOL        -0.1787
     17 C13         0.5772    0.1556    7.4298 C.3       1 MOL         0.6949
     18 F1          1.6210   -0.6321    7.0349 F         1 MOL        -0.2244
     19 F2          1.0260    0.8104    8.5413 F         1 MOL        -0.2244
     20 F3         -0.3834   -0.7057    7.8750 F         1 MOL        -0.2244
     21 N3          0.8410    1.8774    2.8239 N.pl3     1 MOL         0.3191
     22 O3          1.8163    2.6351    2.6117 O.2       1 MOL        -0.1787
     23 O4          0.4012    1.0917    1.9525 O.3       1 MOL        -0.1787
     24 H1         -6.6907    4.3365    0.9712 H         1 MOL         0.0362
     25 H2         -6.3108    4.6196    2.6788 H         1 MOL         0.0362
     26 H3         -5.6250    5.6780    1.4343 H         1 MOL         0.0362
     27 H4         -5.0101    2.6949    1.7807 H         1 MOL         0.0411
     28 H5         -4.3270    3.7351    0.5291 H         1 MOL         0.0411
     29 H6         -3.2927    5.1800    2.3191 H         1 MOL         0.0547
     30 H7         -3.9725    4.1156    3.5520 H         1 MOL         0.0547
     31 H8         -1.9415    3.2261    1.4344 H         1 MOL         0.0524
     32 H9         -2.6403    2.2098    2.7075 H         1 MOL         0.0524
     33 H10        -1.5709    5.6735    3.3820 H         1 MOL         0.0517
     34 H11        -0.0230    5.0758    4.0238 H         1 MOL         0.0517
     35 H12         0.2972    6.1448    1.7699 H         1 MOL         0.0503
     36 H13         0.6363    4.3921    1.7072 H         1 MOL         0.0503
     37 H14        -0.9157    5.0235    1.1264 H         1 MOL         0.0503
     38 H15         1.5068    0.3817    4.9032 H         1 MOL         0.1830
     39 H16        -1.4484    1.9346    7.6048 H         1 MOL         0.1830
@<TRIPOS>BOND
     1    1    2 1
     2    2    3 1
     3    3    4 1
     4    4    5 1
     5    5    6 1
     6    6    7 1
     7    5    8 1
     8    8   13 ar
     9    8    9 ar
    10    9   10 ar
    11   10   11 ar
    12   11   12 ar
    13   12   13 ar
    14   13   14 1
    15   14   15 2
    16   14   16 1
    17   11   17 1
    18   17   18 1
    19   17   19 1
    20   17   20 1
    21    9   21 1
    22   21   22 2
    23   21   23 1
    24    1   24 1
    25    1   25 1
    26    1   26 1
    27    2   27 1
    28    2   28 1
    29    3   29 1
    30    3   30 1
    31    4   31 1
    32    4   32 1
    33    6   33 1
    34    6   34 1
    35    7   35 1
    36    7   36 1
    37    7   37 1
    38   10   38 1
    39   12   39 1
