@<TRIPOS>MOLECULE
butyl 4-hydroxybenzoate
   28    28     0     0     0
SMALL
USER_CHARGES

@<TRIPOS>ATOM
      1 C1         -2.1217   -2.4486    4.1676 C.3       1 MOL        -0.0970
      2 C2         -1.8675   -2.7557    2.7005 C.3       1 MOL        -0.0752
      3 C3         -3.1548   -2.6882    1.8838 C.3       1 MOL        -0.1067
      4 C4         -2.9047   -2.9950    0.4140 C.3       1 MOL         0.1335
      5 O1         -4.1377   -2.9159   -0.2877 O.3       1 MOL        -0.4359
      6 C5         -4.0825   -3.1663   -1.6254 C.2       1 MOL         0.6499
      7 O2         -3.0787   -3.4485   -2.2611 O.2       1 MOL        -0.5339
      8 C6         -5.4295   -3.0508   -2.2392 C.ar      1 MOL        -0.1562
      9 C7         -5.5941   -3.2698   -3.6069 C.ar      1 MOL        -0.0458
     10 C8         -6.8596   -3.1614   -4.1833 C.ar      1 MOL        -0.1941
     11 C9         -7.9606   -2.8338   -3.3919 C.ar      1 MOL         0.1472
     12 C10        -7.7960   -2.6147   -2.0242 C.ar      1 MOL        -0.1941
     13 C11        -6.5304   -2.7232   -1.4479 C.ar      1 MOL        -0.0458
     14 O3         -9.1959   -2.7278   -3.9535 O.3       1 MOL        -0.4912
     15 H1         -1.1935   -2.4993    4.7457 H         1 MOL         0.0361
     16 H2         -2.5492   -1.4484    4.2906 H         1 MOL         0.0361
     17 H3         -2.8250   -3.1730    4.5901 H         1 MOL         0.0361
     18 H4         -1.1375   -2.0401    2.3046 H         1 MOL         0.0406
     19 H5         -1.4231   -3.7540    2.6140 H         1 MOL         0.0406
     20 H6         -3.8946   -3.3941    2.2814 H         1 MOL         0.0532
     21 H7         -3.6106   -1.6942    1.9748 H         1 MOL         0.0532
     22 H8         -2.2084   -2.2722   -0.0229 H         1 MOL         0.0656
     23 H9         -2.4972   -4.0033    0.2891 H         1 MOL         0.0656
     24 H10        -4.7433   -3.5249   -4.2334 H         1 MOL         0.1489
     25 H11        -6.9816   -3.3342   -5.2490 H         1 MOL         0.1486
     26 H12        -8.6499   -2.3587   -1.4027 H         1 MOL         0.1486
     27 H13        -6.4133   -2.5512   -0.3809 H         1 MOL         0.1489
     28 H14        -9.1489   -2.9075   -4.9060 H         1 MOL         0.4232
@<TRIPOS>BOND
     1    1    2 1
     2    2    3 1
     3    3    4 1
     4    4    5 1
     5    5    6 1
     6    6    7 2
     7    6    8 1
     8    8   13 ar
     9    8    9 ar
    10    9   10 ar
    11   10   11 ar
    12   11   12 ar
    13   12   13 ar
    14   11   14 1
    15    1   15 1
    16    1   16 1
    17    1   17 1
    18    2   18 1
    19    2   19 1
    20    3   20 1
    21    3   21 1
    22    4   22 1
    23    4   23 1
    24    9   24 1
    25   10   25 1
    26   12   26 1
    27   13   27 1
    28   14   28 1
