@<TRIPOS>MOLECULE
1-chlorodibenzo-p-dioxin
   22    24     0     0     0
SMALL
USER_CHARGES

@<TRIPOS>ATOM
      1 C1         -1.8584    0.7400    0.8000 C.ar      1 MOL        -0.1267
      2 C2         -1.0039   -0.2568    0.3257 C.ar      1 MOL        -0.1264
      3 C3         -1.4367   -1.5819    0.2693 C.ar      1 MOL        -0.1127
      4 C4         -2.7266   -1.9051    0.6889 C.ar      1 MOL         0.0614
      5 C5         -3.5799   -0.9097    1.1626 C.ar      1 MOL         0.0605
      6 C6         -3.1487    0.4152    1.2196 C.ar      1 MOL        -0.1149
      7 O1         -4.8561   -1.1828    1.5855 O.3       1 MOL        -0.2223
      8 C7         -5.2389   -2.4982    1.5123 C.ar      1 MOL         0.0716
      9 C8         -6.5287   -2.8214    1.9320 C.ar      1 MOL        -0.1175
     10 C9         -6.9616   -4.1465    1.8755 C.ar      1 MOL        -0.1196
     11 C10        -6.1071   -5.1433    1.4010 C.ar      1 MOL        -0.1260
     12 C11        -4.8168   -4.8184    0.9815 C.ar      1 MOL         0.0248
     13 C12        -4.3856   -3.4936    1.0385 C.ar      1 MOL         0.0696
     14 O2         -3.1093   -3.2205    0.6157 O.3       1 MOL        -0.2118
     15 Cl1        -3.7901   -6.0785    0.4013 Cl        1 MOL        -0.0600
     16 H1         -1.5175    1.7706    0.8425 H         1 MOL         0.1403
     17 H2          0.0000   -0.0001    0.0001 H         1 MOL         0.1403
     18 H3         -0.7663   -2.3523   -0.1008 H         1 MOL         0.1580
     19 H4         -3.8082    1.1963    1.5873 H         1 MOL         0.1553
     20 H5         -7.1995   -2.0508    2.3017 H         1 MOL         0.1587
     21 H6         -7.9656   -4.4030    2.2010 H         1 MOL         0.1447
     22 H7         -6.4633   -6.1698    1.3647 H         1 MOL         0.1527
@<TRIPOS>BOND
     1    1    6 ar
     2    1    2 ar
     3    2    3 ar
     4    3    4 ar
     5    4   14 1
     6    4    5 ar
     7    5    6 ar
     8    5    7 1
     9    7    8 1
    10    8   13 ar
    11    8    9 ar
    12    9   10 ar
    13   10   11 ar
    14   11   12 ar
    15   12   13 ar
    16   13   14 1
    17   12   15 1
    18    1   16 1
    19    2   17 1
    20    3   18 1
    21    6   19 1
    22    9   20 1
    23   10   21 1
    24   11   22 1
