@<TRIPOS>MOLECULE
1-(p-tolyl)ethanone
   20    20     0     0     0
SMALL
USER_CHARGES

@<TRIPOS>ATOM
      1 C1          1.9301   -1.0136   -1.6031 C.3       1 MOL        -0.0599
      2 C2          1.8851   -1.0363   -0.1124 C.ar      1 MOL        -0.0500
      3 C3          2.9210   -1.6309    0.6081 C.ar      1 MOL        -0.1435
      4 C4          2.8783   -1.6520    2.0022 C.ar      1 MOL        -0.0826
      5 C5          1.7997   -1.0786    2.6757 C.ar      1 MOL        -0.1780
      6 C6          0.7638   -0.4841    1.9551 C.ar      1 MOL        -0.0826
      7 C7          0.8066   -0.4630    0.5610 C.ar      1 MOL        -0.1435
      8 C8          1.7553   -1.1010    4.1293 C.2       1 MOL         0.5773
      9 O1          2.2556   -1.9769    4.8379 O.2       1 MOL        -0.5329
     10 C9          1.0520    0.0317    4.8189 C.3       1 MOL        -0.1989
     11 H1          2.4377   -0.1078   -1.9487 H         1 MOL         0.0482
     12 H2          2.4627   -1.8880   -1.9916 H         1 MOL         0.0482
     13 H3          0.9197   -1.0362   -2.0250 H         1 MOL         0.0482
     14 H4          3.7653   -2.0798    0.0916 H         1 MOL         0.1359
     15 H5          3.6905   -2.1181    2.5539 H         1 MOL         0.1420
     16 H6         -0.0812   -0.0346    2.4698 H         1 MOL         0.1420
     17 H7         -0.0050    0.0024    0.0078 H         1 MOL         0.1359
     18 H8         -0.0214   -0.1468    4.9899 H         1 MOL         0.0647
     19 H9          1.1463    0.9897    4.2845 H         1 MOL         0.0647
     20 H10         1.4476    0.2394    5.8291 H         1 MOL         0.0647
@<TRIPOS>BOND
     1    1    2 1
     2    2    7 ar
     3    2    3 ar
     4    3    4 ar
     5    4    5 ar
     6    5    6 ar
     7    6    7 ar
     8    5    8 1
     9    8    9 2
    10    8   10 1
    11    1   11 1
    12    1   12 1
    13    1   13 1
    14    3   14 1
    15    4   15 1
    16    6   16 1
    17    7   17 1
    18   10   18 1
    19   10   19 1
    20   10   20 1
