@<TRIPOS>MOLECULE
cyclopentanone
   14    14     0     0     0
SMALL
USER_CHARGES

@<TRIPOS>ATOM
      1 C1          1.0223   -0.7754    0.9550 C.3       1 MOL        -0.0821
      2 C2          1.5583    0.3514    0.0824 C.3       1 MOL        -0.0821
      3 C3          0.3277    1.1760   -0.2732 C.3       1 MOL        -0.1913
      4 C4         -0.7497    0.1232   -0.3013 C.2       1 MOL         0.5697
      5 O1         -1.8728    0.3078   -0.7522 O.2       1 MOL        -0.5262
      6 C5         -0.2859   -1.1830    0.2893 C.3       1 MOL        -0.1913
      7 H1          0.8287   -0.4017    1.9683 H         1 MOL         0.0501
      8 H2          1.7230   -1.6120    1.0320 H         1 MOL         0.0501
      9 H3          2.3196    0.9479    0.5934 H         1 MOL         0.0501
     10 H4          2.0086   -0.0642   -0.8272 H         1 MOL         0.0501
     11 H5          0.0940    1.9036    0.5091 H         1 MOL         0.0758
     12 H6          0.4326    1.6652   -1.2438 H         1 MOL         0.0758
     13 H7         -1.0061   -1.5725    1.0117 H         1 MOL         0.0758
     14 H8         -0.1172   -1.8996   -0.5195 H         1 MOL         0.0758
@<TRIPOS>BOND
     1    1    6 1
     2    1    2 1
     3    2    3 1
     4    3    4 1
     5    4    5 2
     6    4    6 1
     7    1    7 1
     8    1    8 1
     9    2    9 1
    10    2   10 1
    11    3   11 1
    12    3   12 1
    13    6   13 1
    14    6   14 1
