@<TRIPOS>MOLECULE
pentan-3-ol
   18    17     0     0     0
SMALL
USER_CHARGES

@<TRIPOS>ATOM
      1 C1         -0.2573    0.9723    0.2434 C.3       1 MOL        -0.0900
      2 C2         -0.4534    1.2393    1.7303 C.3       1 MOL        -0.1117
      3 C3         -1.5325    0.3415    2.3459 C.3       1 MOL         0.1358
      4 C4         -1.6986    0.6411    3.8403 C.3       1 MOL        -0.1117
      5 C5         -2.7615   -0.2258    4.5026 C.3       1 MOL        -0.0900
      6 O1         -1.1462   -1.0186    2.1649 O.3       1 MOL        -0.5956
      7 H1          0.5191    1.6312   -0.1583 H         1 MOL         0.0378
      8 H2          0.0522   -0.0614    0.0606 H         1 MOL         0.0378
      9 H3         -1.1815    1.1590   -0.3127 H         1 MOL         0.0378
     10 H4          0.5048    1.0712    2.2371 H         1 MOL         0.0415
     11 H5         -0.7213    2.2932    1.8683 H         1 MOL         0.0415
     12 H6         -2.4821    0.4995    1.8209 H         1 MOL         0.0763
     13 H7         -0.7479    0.4744    4.3612 H         1 MOL         0.0415
     14 H8         -1.9711    1.6940    3.9777 H         1 MOL         0.0415
     15 H9         -2.8422    0.0251    5.5652 H         1 MOL         0.0378
     16 H10        -3.7412   -0.0658    4.0413 H         1 MOL         0.0378
     17 H11        -2.5140   -1.2891    4.4304 H         1 MOL         0.0378
     18 H12        -0.2958   -1.1267    2.6182 H         1 MOL         0.3945
@<TRIPOS>BOND
     1    1    2 1
     2    2    3 1
     3    3    4 1
     4    4    5 1
     5    3    6 1
     6    1    7 1
     7    1    8 1
     8    1    9 1
     9    2   10 1
    10    2   11 1
    11    3   12 1
    12    4   13 1
    13    4   14 1
    14    5   15 1
    15    5   16 1
    16    5   17 1
    17    6   18 1
