@<TRIPOS>MOLECULE
heptanal
   22    21     0     0     0
SMALL
USER_CHARGES

@<TRIPOS>ATOM
      1 C1         -3.5184   -0.1724    0.1194 C.3       1 MOL        -0.0921
      2 C2         -2.1808    0.2198   -0.4874 C.3       1 MOL        -0.0801
      3 C3         -1.0132   -0.3836    0.2930 C.3       1 MOL        -0.0789
      4 C4          0.3307    0.0137   -0.3211 C.3       1 MOL        -0.0772
      5 C5          1.4998   -0.5915    0.4617 C.3       1 MOL        -0.0756
      6 C6          2.8533   -0.2109   -0.1297 C.3       1 MOL        -0.1969
      7 C7          3.9863   -0.8170    0.6562 C.2       1 MOL         0.5612
      8 O1          3.8176   -1.5246    1.6443 O.2       1 MOL        -0.5252
      9 H1         -4.3390    0.2697   -0.4542 H         1 MOL         0.0335
     10 H2         -3.5983    0.1790    1.1530 H         1 MOL         0.0335
     11 H3         -3.6477   -1.2594    0.1146 H         1 MOL         0.0335
     12 H4         -2.0972    1.3127   -0.4974 H         1 MOL         0.0373
     13 H5         -2.1461   -0.1178   -1.5297 H         1 MOL         0.0373
     14 H6         -1.0546   -0.0459    1.3358 H         1 MOL         0.0417
     15 H7         -1.1041   -1.4766    0.3033 H         1 MOL         0.0417
     16 H8          0.3722   -0.3259   -1.3633 H         1 MOL         0.0376
     17 H9          0.4153    1.1068   -0.3337 H         1 MOL         0.0376
     18 H10         1.4098   -1.6844    0.4532 H         1 MOL         0.0540
     19 H11         1.4445   -0.2720    1.5095 H         1 MOL         0.0540
     20 H12         2.9766    0.8764   -0.1660 H         1 MOL         0.0659
     21 H13         2.9297   -0.5951   -1.1525 H         1 MOL         0.0659
     22 H14         5.0028   -0.5538    0.3168 H         1 MOL        -0.0085
@<TRIPOS>BOND
     1    1    2 1
     2    2    3 1
     3    3    4 1
     4    4    5 1
     5    5    6 1
     6    6    7 1
     7    7    8 2
     8    1    9 1
     9    1   10 1
    10    1   11 1
    11    2   12 1
    12    2   13 1
    13    3   14 1
    14    3   15 1
    15    4   16 1
    16    4   17 1
    17    5   18 1
    18    5   19 1
    19    6   20 1
    20    6   21 1
    21    7   22 1
