@<TRIPOS>MOLECULE
1-methylcyclohexene
   19    19     0     0     0
SMALL
USER_CHARGES

@<TRIPOS>ATOM
      1 C1          1.4044    3.7154    1.9912 C.3       1 MOL        -0.0593
      2 C2          0.6071    2.4535    1.8421 C.2       1 MOL        -0.1152
      3 C3          0.1963    2.0094    0.6416 C.2       1 MOL        -0.1717
      4 C4         -0.6330    0.7736    0.4510 C.3       1 MOL        -0.0443
      5 C5         -1.2420    0.2490    1.7515 C.3       1 MOL        -0.0755
      6 C6         -0.2263    0.2896    2.8870 C.3       1 MOL        -0.0751
      7 C7          0.2913    1.7119    3.1175 C.3       1 MOL        -0.0418
      8 H1          2.4741    3.4976    1.9317 H         1 MOL         0.0401
      9 H2          1.1944    4.1857    2.9559 H         1 MOL         0.0401
     10 H3          1.1451    4.4239    1.1996 H         1 MOL         0.0401
     11 H4          0.4600    2.5595   -0.2579 H         1 MOL         0.1192
     12 H5         -1.4399    0.9835   -0.2604 H         1 MOL         0.0456
     13 H6         -0.0004   -0.0001   -0.0002 H         1 MOL         0.0456
     14 H7         -2.1137    0.8585    2.0219 H         1 MOL         0.0399
     15 H8         -1.6032   -0.7749    1.6035 H         1 MOL         0.0399
     16 H9         -0.6768   -0.0926    3.8100 H         1 MOL         0.0398
     17 H10         0.6154   -0.3725    2.6460 H         1 MOL         0.0398
     18 H11        -0.4595    2.2861    3.6748 H         1 MOL         0.0463
     19 H12         1.1865    1.6557    3.7482 H         1 MOL         0.0463
@<TRIPOS>BOND
     1    1    2 1
     2    2    7 1
     3    2    3 2
     4    3    4 1
     5    4    5 1
     6    5    6 1
     7    6    7 1
     8    1    8 1
     9    1    9 1
    10    1   10 1
    11    3   11 1
    12    4   12 1
    13    4   13 1
    14    5   14 1
    15    5   15 1
    16    6   16 1
    17    6   17 1
    18    7   18 1
    19    7   19 1
