@<TRIPOS>MOLECULE
S-propyl N-butyl-N-ethyl-carbamothioate
   34    33     0     0     0
SMALL
USER_CHARGES

@<TRIPOS>ATOM
      1 C1         -2.7021    2.5856   -1.3198 C.3       1 MOL        -0.0937
      2 C2         -3.0961    2.5444    0.1484 C.3       1 MOL        -0.0794
      3 C3         -1.9931    3.1207    1.0392 C.3       1 MOL        -0.1011
      4 C4         -2.3606    3.0925    2.5191 C.3       1 MOL         0.1031
      5 N1         -1.3228    3.6343    3.3520 N.am      1 MOL        -0.4731
      6 C5         -1.2786    5.0635    3.6921 C.3       1 MOL         0.0982
      7 C6         -2.0404    5.3103    4.9359 C.3       1 MOL        -0.1182
      8 C7         -0.2934    2.8129    3.8837 C.2       1 MOL         0.6875
      9 O1          0.6220    3.2106    4.6010 O.2       1 MOL        -0.5971
     10 S1         -0.3735    1.1032    3.4237 S.3       1 MOL        -0.2800
     11 C8          1.0712    0.4482    4.2875 C.3       1 MOL         0.0042
     12 C9          1.2197   -1.0517    4.0380 C.3       1 MOL        -0.0722
     13 C10         2.4336   -1.6177    4.7601 C.3       1 MOL        -0.0998
     14 H1         -3.4956    2.1719   -1.9505 H         1 MOL         0.0308
     15 H2         -2.5211    3.6180   -1.6348 H         1 MOL         0.0308
     16 H3         -1.7872    2.0112   -1.4971 H         1 MOL         0.0308
     17 H4         -4.0222    3.1141    0.2876 H         1 MOL         0.0439
     18 H5         -3.3074    1.5067    0.4299 H         1 MOL         0.0439
     19 H6         -1.0617    2.5640    0.8775 H         1 MOL         0.0540
     20 H7         -1.8027    4.1606    0.7472 H         1 MOL         0.0540
     21 H8         -2.5650    2.0722    2.8585 H         1 MOL         0.0527
     22 H9         -3.2574    3.6956    2.6933 H         1 MOL         0.0527
     23 H10        -0.2293    5.3140    3.8033 H         1 MOL         0.0570
     24 H11        -1.7011    5.5877    2.8420 H         1 MOL         0.0570
     25 H12        -2.0236    6.3701    5.2127 H         1 MOL         0.0441
     26 H13        -3.0801    4.9782    4.8417 H         1 MOL         0.0441
     27 H14        -1.5755    4.7411    5.7497 H         1 MOL         0.0441
     28 H15         0.9634    0.6463    5.3617 H         1 MOL         0.0778
     29 H16         1.9653    0.9818    3.9401 H         1 MOL         0.0778
     30 H17         0.3251   -1.5840    4.3834 H         1 MOL         0.0518
     31 H18         1.3255   -1.2489    2.9643 H         1 MOL         0.0518
     32 H19         2.5335   -2.6924    4.5768 H         1 MOL         0.0409
     33 H20         3.3466   -1.1269    4.4085 H         1 MOL         0.0409
     34 H21         2.3568   -1.4586    5.8405 H         1 MOL         0.0409
@<TRIPOS>BOND
     1    1    2 1
     2    2    3 1
     3    3    4 1
     4    4    5 1
     5    5    6 1
     6    6    7 1
     7    5    8 am
     8    8    9 2
     9    8   10 1
    10   10   11 1
    11   11   12 1
    12   12   13 1
    13    1   14 1
    14    1   15 1
    15    1   16 1
    16    2   17 1
    17    2   18 1
    18    3   19 1
    19    3   20 1
    20    4   21 1
    21    4   22 1
    22    6   23 1
    23    6   24 1
    24    7   25 1
    25    7   26 1
    26    7   27 1
    27   11   28 1
    28   11   29 1
    29   12   30 1
    30   12   31 1
    31   13   32 1
    32   13   33 1
    33   13   34 1
