@<TRIPOS>MOLECULE
1,1-dimethyl-3-phenyl-urea
   24    24     0     0     0
SMALL
USER_CHARGES

@<TRIPOS>ATOM
      1 C1          0.6784   -0.7210   -0.2299 C.3       1 MOL         0.0883
      2 N1          1.8317    0.0809   -0.6182 N.am      1 MOL        -0.4816
      3 C2          1.5872    1.4497   -1.0681 C.3       1 MOL         0.0883
      4 C3          3.1092   -0.5202   -0.5333 C.2       1 MOL         0.7895
      5 O1          3.2567   -1.6813   -0.1459 O.2       1 MOL        -0.5893
      6 N2          4.1539    0.3102   -0.9470 N.am      1 MOL        -0.5310
      7 C4          5.3835   -0.0753   -1.5363 C.ar      1 MOL         0.1133
      8 C5          6.3214    0.8949   -1.8896 C.ar      1 MOL        -0.1966
      9 C6          7.5326    0.5159   -2.4686 C.ar      1 MOL        -0.0886
     10 C7          7.8058   -0.8331   -2.6944 C.ar      1 MOL        -0.1765
     11 C8          6.8678   -1.8033   -2.3412 C.ar      1 MOL        -0.0886
     12 C9          5.6567   -1.4244   -1.7622 C.ar      1 MOL        -0.1966
     13 H1          0.2881   -1.2619   -1.0959 H         1 MOL         0.0453
     14 H2         -0.1114   -0.0787    0.1692 H         1 MOL         0.0453
     15 H3          0.9629   -1.4451    0.5383 H         1 MOL         0.0453
     16 H4          1.6214    2.1130   -0.2102 H         1 MOL         0.0453
     17 H5          0.6093    1.4988   -1.5361 H         1 MOL         0.0453
     18 H6          2.3537    1.7291   -1.7837 H         1 MOL         0.0453
     19 H7          4.0100    1.3133   -0.8903 H         1 MOL         0.3344
     20 H8          6.1196    1.9491   -1.7173 H         1 MOL         0.1350
     21 H9          8.2634    1.2709   -2.7435 H         1 MOL         0.1303
     22 H10         8.7486   -1.1281   -3.1456 H         1 MOL         0.1328
     23 H11         7.0813   -2.8536   -2.5169 H         1 MOL         0.1303
     24 H12         4.9340   -2.1896   -1.4902 H         1 MOL         0.1350
@<TRIPOS>BOND
     1    1    2 1
     2    2    3 1
     3    2    4 am
     4    4    5 2
     5    4    6 am
     6    6    7 1
     7    7   12 ar
     8    7    8 ar
     9    8    9 ar
    10    9   10 ar
    11   10   11 ar
    12   11   12 ar
    13    1   13 1
    14    1   14 1
    15    1   15 1
    16    3   16 1
    17    3   17 1
    18    3   18 1
    19    6   19 1
    20    8   20 1
    21    9   21 1
    22   10   22 1
    23   11   23 1
    24   12   24 1
