@<TRIPOS>MOLECULE
1-methylpiperidine
   20    20     0     0     0
SMALL
USER_CHARGES

@<TRIPOS>ATOM
      1 C1         -2.2769    2.8571    2.7077 C.3       1 MOL         0.1485
      2 N1         -1.0464    2.5099    1.9972 N.3       1 MOL        -0.7123
      3 C2         -0.5091    1.2349    2.4928 C.3       1 MOL         0.1593
      4 C3          0.8047    0.8812    1.7942 C.3       1 MOL        -0.0766
      5 C4          0.6363    0.8488    0.2794 C.3       1 MOL        -0.0780
      6 C5          0.0019    2.1441   -0.2139 C.3       1 MOL        -0.0766
      7 C6         -1.2866    2.4578    0.5483 C.3       1 MOL         0.1593
      8 H1         -2.0914    2.8941    3.7843 H         1 MOL         0.0314
      9 H2         -3.0511    2.1109    2.5095 H         1 MOL         0.0314
     10 H3         -2.6399    3.8347    2.3793 H         1 MOL         0.0314
     11 H4         -0.3138    1.3082    3.5696 H         1 MOL         0.0297
     12 H5         -1.2334    0.4225    2.3472 H         1 MOL         0.0297
     13 H6          1.5728    1.6181    2.0615 H         1 MOL         0.0465
     14 H7          1.1608   -0.0934    2.1472 H         1 MOL         0.0465
     15 H8          1.6076    0.6974   -0.2042 H         1 MOL         0.0387
     16 H9          0.0002   -0.0000   -0.0001 H         1 MOL         0.0387
     17 H10         0.7129    2.9709   -0.0892 H         1 MOL         0.0465
     18 H11        -0.2119    2.0660   -1.2860 H         1 MOL         0.0465
     19 H12        -1.6617    3.4277    0.1994 H         1 MOL         0.0297
     20 H13        -2.0498    1.7064    0.3052 H         1 MOL         0.0297
@<TRIPOS>BOND
     1    1    2 1
     2    2    7 1
     3    2    3 1
     4    3    4 1
     5    4    5 1
     6    5    6 1
     7    6    7 1
     8    1    8 1
     9    1    9 1
    10    1   10 1
    11    3   11 1
    12    3   12 1
    13    4   13 1
    14    4   14 1
    15    5   15 1
    16    5   16 1
    17    6   17 1
    18    6   18 1
    19    7   19 1
    20    7   20 1
