@<TRIPOS>MOLECULE
4-nitrophenol
   15    15     0     0     0
SMALL
USER_CHARGES

@<TRIPOS>ATOM
      1 C1          1.8851   -1.0363   -0.1124 C.ar      1 MOL        -0.0279
      2 C2          2.9210   -1.6309    0.6081 C.ar      1 MOL        -0.2003
      3 C3          2.8783   -1.6520    2.0022 C.ar      1 MOL         0.1707
      4 C4          1.7997   -1.0786    2.6757 C.ar      1 MOL        -0.2003
      5 C5          0.7638   -0.4841    1.9551 C.ar      1 MOL        -0.0279
      6 C6          0.8066   -0.4630    0.5610 C.ar      1 MOL        -0.2193
      7 N1         -0.2490    0.1403   -0.1729 N.pl3     1 MOL         0.3192
      8 O1         -0.1907    0.1485   -1.4262 O.2       1 MOL        -0.2126
      9 O2         -1.2108    0.6486    0.4522 O.3       1 MOL        -0.2126
     10 O3          3.8891   -2.2315    2.7057 O.3       1 MOL        -0.4825
     11 H1          1.9301   -1.0269   -1.1986 H         1 MOL         0.1742
     12 H2          3.7585   -2.0763    0.0780 H         1 MOL         0.1575
     13 H3          1.7605   -1.0929    3.7614 H         1 MOL         0.1575
     14 H4         -0.0712   -0.0409    2.4924 H         1 MOL         0.1742
     15 H5          4.5618   -2.5827    2.1007 H         1 MOL         0.4301
@<TRIPOS>BOND
     1    1    6 ar
     2    1    2 ar
     3    2    3 ar
     4    3    4 ar
     5    4    5 ar
     6    5    6 ar
     7    6    7 1
     8    7    8 2
     9    7    9 1
    10    3   10 1
    11    1   11 1
    12    2   12 1
    13    4   13 1
    14    5   14 1
    15   10   15 1
