@<TRIPOS>MOLECULE
N,N-dimethylaniline
   20    20     0     0     0
SMALL
USER_CHARGES

@<TRIPOS>ATOM
      1 C1          3.2013   -0.9778   -2.2318 C.3       1 MOL         0.2213
      2 N1          1.9290   -1.0140   -1.5220 N.pl3     1 MOL        -0.7253
      3 C2          0.7036   -1.0405   -2.3105 C.3       1 MOL         0.2213
      4 C3          1.8851   -1.0363   -0.1124 C.ar      1 MOL         0.1975
      5 C4          2.9210   -1.6309    0.6081 C.ar      1 MOL        -0.1937
      6 C5          2.8783   -1.6520    2.0022 C.ar      1 MOL        -0.0956
      7 C6          1.7997   -1.0786    2.6757 C.ar      1 MOL        -0.1745
      8 C7          0.7638   -0.4841    1.9551 C.ar      1 MOL        -0.0956
      9 C8          0.8066   -0.4630    0.5610 C.ar      1 MOL        -0.1937
     10 H1          4.0292   -0.9609   -1.5183 H         1 MOL         0.0321
     11 H2          3.2589   -0.0841   -2.8590 H         1 MOL         0.0321
     12 H3          3.3038   -1.8603   -2.8691 H         1 MOL         0.0321
     13 H4         -0.1504   -1.0659   -1.6396 H         1 MOL         0.0321
     14 H5          0.7027   -1.9257   -2.9406 H         1 MOL         0.0321
     15 H6          0.6578   -0.1495   -2.9306 H         1 MOL         0.0321
     16 H7          3.7666   -2.0796    0.0935 H         1 MOL         0.1305
     17 H8          3.6851   -2.1139    2.5639 H         1 MOL         0.1272
     18 H9          1.7657   -1.0953    3.7611 H         1 MOL         0.1300
     19 H10        -0.0755   -0.0368    2.4794 H         1 MOL         0.1272
     20 H11        -0.0061    0.0030    0.0092 H         1 MOL         0.1305
@<TRIPOS>BOND
     1    1    2 1
     2    2    3 1
     3    2    4 1
     4    4    9 ar
     5    4    5 ar
     6    5    6 ar
     7    6    7 ar
     8    7    8 ar
     9    8    9 ar
    10    1   10 1
    11    1   11 1
    12    1   12 1
    13    3   13 1
    14    3   14 1
    15    3   15 1
    16    5   16 1
    17    6   17 1
    18    7   18 1
    19    8   19 1
    20    9   20 1
