@<TRIPOS>MOLECULE
(2R)-2-chloro-2-(difluoromethoxy)-1,1,1-trifluoro-ethane
   12    11     0     0     0
SMALL
USER_CHARGES

@<TRIPOS>ATOM
      1 C1         -0.5010   -0.1492    0.2830 C.3       1 MOL         0.1991
      2 H1         -0.6962    0.8533    0.6796 H         1 MOL         0.1109
      3 C2         -0.0727   -1.0685    1.4067 C.3       1 MOL         0.6481
      4 F1         -1.0305   -1.1634    2.3551 F         1 MOL        -0.2156
      5 F2          1.0424   -0.5957    2.0083 F         1 MOL        -0.2156
      6 F3          0.1987   -2.3142    0.9627 F         1 MOL        -0.2156
      7 O1         -1.6690   -0.7019   -0.3208 O.3       1 MOL        -0.4332
      8 C3         -2.5237    0.2838   -0.8744 C.3       1 MOL         0.5915
      9 F4         -2.9232    1.0954    0.1356 F         1 MOL        -0.2205
     10 F5         -3.6355   -0.3237   -1.3552 F         1 MOL        -0.2205
     11 Cl1         0.8035   -0.0341   -0.9265 Cl        1 MOL        -0.1381
     12 H2         -2.0461    0.8840   -1.6550 H         1 MOL         0.1096
@<TRIPOS>BOND
     1    1    2 1
     2    1    3 1
     3    3    4 1
     4    3    5 1
     5    3    6 1
     6    1    7 1
     7    7    8 1
     8    8    9 1
     9    8   10 1
    10    1   11 1
    11    8   12 1
