@<TRIPOS>MOLECULE
diethoxy-(2-isopropyl-6-methyl-pyrimidin-4-yl)oxy-thioxo-$l^{5}-phosphane
   40    40     0     0     0
SMALL
USER_CHARGES

@<TRIPOS>ATOM
      1 C1         -4.1334    1.7908   -0.4518 C.3       1 MOL        -0.0963
      2 C2         -2.9949    0.7932   -0.4335 C.3       1 MOL         0.1564
      3 O1         -2.4744    0.6624   -1.7458 O.3       1 MOL        -0.5425
      4 P1         -1.2319   -0.3520   -2.0276 P.3       1 MOL         1.2645
      5 S1         -1.5516   -2.2286   -1.6034 S.2       1 MOL        -0.6015
      6 O2         -0.0316    0.4002   -1.2271 O.3       1 MOL        -0.5425
      7 C3          1.3184    0.1047   -1.5423 C.3       1 MOL         0.1564
      8 C4          2.2264    0.9347   -0.6588 C.3       1 MOL        -0.0963
      9 O3         -0.8843    0.0037   -3.5707 O.3       1 MOL        -0.5820
     10 C5         -1.7272   -0.1140   -4.6428 C.ar      1 MOL         0.7068
     11 C6         -1.2719    0.2334   -5.8983 C.ar      1 MOL        -0.4195
     12 C7         -2.1820    0.0861   -6.9252 C.ar      1 MOL         0.4880
     13 N1         -3.4417   -0.3647   -6.7515 N.ar      1 MOL        -0.7110
     14 C8         -3.7656   -0.6705   -5.4807 C.ar      1 MOL         0.6845
     15 N2         -2.9726   -0.5711   -4.3969 N.ar      1 MOL        -0.6966
     16 C9         -5.1504   -1.1726   -5.2489 C.3       1 MOL        -0.0982
     17 C10        -5.9481   -0.2761   -4.2829 C.3       1 MOL        -0.0926
     18 C11        -5.1729   -2.6293   -4.7480 C.3       1 MOL        -0.0926
     19 C12        -1.7810    0.4365   -8.3187 C.3       1 MOL        -0.1581
     20 H1         -4.5589    1.9157    0.5479 H         1 MOL         0.0547
     21 H2         -3.7873    2.7649   -0.8129 H         1 MOL         0.0547
     22 H3         -4.9243    1.4613   -1.1337 H         1 MOL         0.0547
     23 H4         -3.3478   -0.1856   -0.0952 H         1 MOL         0.0606
     24 H5         -2.1954    1.1350    0.2305 H         1 MOL         0.0606
     25 H6          1.4957   -0.9629   -1.3769 H         1 MOL         0.0606
     26 H7          1.4952    0.3364   -2.5976 H         1 MOL         0.0606
     27 H8          3.2784    0.7305   -0.8767 H         1 MOL         0.0547
     28 H9          2.0357    2.0029   -0.8060 H         1 MOL         0.0547
     29 H10         2.0365    0.7202    0.3981 H         1 MOL         0.0547
     30 H11        -0.2655    0.5976   -6.0636 H         1 MOL         0.1673
     31 H12        -5.7149   -1.1706   -6.2009 H         1 MOL         0.0761
     32 H13        -6.9623   -0.6580   -4.1231 H         1 MOL         0.0446
     33 H14        -6.0348    0.7470   -4.6647 H         1 MOL         0.0446
     34 H15        -5.4517   -0.2288   -3.3072 H         1 MOL         0.0446
     35 H16        -6.2044   -2.9630   -4.5891 H         1 MOL         0.0446
     36 H17        -4.6365   -2.7350   -3.7987 H         1 MOL         0.0446
     37 H18        -4.7087   -3.3108   -5.4692 H         1 MOL         0.0446
     38 H19        -1.3541   -0.4381   -8.8242 H         1 MOL         0.0639
     39 H20        -2.6398    0.7916   -8.9027 H         1 MOL         0.0639
     40 H21        -1.0356    1.2423   -8.3277 H         1 MOL         0.0639
@<TRIPOS>BOND
     1    1    2 1
     2    2    3 1
     3    3    4 1
     4    4    5 2
     5    4    6 1
     6    6    7 1
     7    7    8 1
     8    4    9 1
     9    9   10 1
    10   10   15 ar
    11   10   11 ar
    12   11   12 ar
    13   12   13 ar
    14   13   14 ar
    15   14   15 ar
    16   14   16 1
    17   16   17 1
    18   16   18 1
    19   12   19 1
    20    1   20 1
    21    1   21 1
    22    1   22 1
    23    2   23 1
    24    2   24 1
    25    7   25 1
    26    7   26 1
    27    8   27 1
    28    8   28 1
    29    8   29 1
    30   11   30 1
    31   16   31 1
    32   17   32 1
    33   17   33 1
    34   17   34 1
    35   18   35 1
    36   18   36 1
    37   18   37 1
    38   19   38 1
    39   19   39 1
    40   19   40 1
