@<TRIPOS>MOLECULE
benzonitrile
   13    13     0     0     0
SMALL
USER_CHARGES

@<TRIPOS>ATOM
      1 C1          1.8851   -1.0363   -0.1124 C.ar      1 MOL        -0.1068
      2 C2          2.9210   -1.6309    0.6081 C.ar      1 MOL        -0.1353
      3 C3          2.8783   -1.6520    2.0022 C.ar      1 MOL        -0.0908
      4 C4          1.7997   -1.0786    2.6757 C.ar      1 MOL        -0.0187
      5 C5          0.7638   -0.4841    1.9551 C.ar      1 MOL        -0.0908
      6 C6          0.8066   -0.4630    0.5610 C.ar      1 MOL        -0.1353
      7 C7          1.7557   -1.1005    4.1039 C.1       1 MOL         0.2339
      8 N1          1.7198   -1.1184    5.2650 N.1       1 MOL        -0.3638
      9 H1          1.9173   -1.0213   -1.1980 H         1 MOL         0.1379
     10 H2          3.7607   -2.0782    0.0844 H         1 MOL         0.1400
     11 H3          3.6929   -2.1195    2.5500 H         1 MOL         0.1448
     12 H4         -0.0838   -0.0331    2.4655 H         1 MOL         0.1448
     13 H5         -0.0006   -0.0011    0.0001 H         1 MOL         0.1400
@<TRIPOS>BOND
     1    1    6 ar
     2    1    2 ar
     3    2    3 ar
     4    3    4 ar
     5    4    5 ar
     6    5    6 ar
     7    4    7 1
     8    7    8 3
     9    1    9 1
    10    2   10 1
    11    3   11 1
    12    5   12 1
    13    6   13 1
