@<TRIPOS>MOLECULE
methyl 4-methoxybenzoate
   22    22     0     0     0
SMALL
USER_CHARGES

@<TRIPOS>ATOM
      1 C1          0.8348   -0.3922   -2.1380 C.3       1 MOL         0.1078
      2 O1          1.9270   -1.0159   -1.4729 O.3       1 MOL        -0.3180
      3 C2          1.8851   -1.0363   -0.1124 C.ar      1 MOL         0.1564
      4 C3          2.9210   -1.6309    0.6081 C.ar      1 MOL        -0.2014
      5 C4          2.8783   -1.6520    2.0022 C.ar      1 MOL        -0.0368
      6 C5          1.7997   -1.0786    2.6757 C.ar      1 MOL        -0.1736
      7 C6          0.7638   -0.4841    1.9551 C.ar      1 MOL        -0.0368
      8 C7          0.8066   -0.4630    0.5610 C.ar      1 MOL        -0.2014
      9 C8          1.7565   -1.0991    4.1291 C.2       1 MOL         0.6518
     10 O2          2.6298   -1.6018    4.8487 O.2       1 MOL        -0.5432
     11 O3          0.6281   -0.4909    4.6077 O.3       1 MOL        -0.4481
     12 C9          0.4709   -0.4461    6.0300 C.3       1 MOL         0.1296
     13 H1          0.9886   -0.4424   -3.2187 H         1 MOL         0.0490
     14 H2          0.7593    0.6501   -1.8180 H         1 MOL         0.0490
     15 H3         -0.0868   -0.9186   -1.8785 H         1 MOL         0.0490
     16 H4          3.7643   -2.0788    0.0895 H         1 MOL         0.1504
     17 H5          3.6916   -2.1175    2.5532 H         1 MOL         0.1579
     18 H6         -0.0808   -0.0337    2.4697 H         1 MOL         0.1579
     19 H7         -0.0034    0.0020    0.0054 H         1 MOL         0.1504
     20 H8         -0.4623    0.0617    6.2623 H         1 MOL         0.0500
     21 H9          1.3178    0.0851    6.4585 H         1 MOL         0.0500
     22 H10         0.4432   -1.4679    6.4010 H         1 MOL         0.0500
@<TRIPOS>BOND
     1    1    2 1
     2    2    3 1
     3    3    8 ar
     4    3    4 ar
     5    4    5 ar
     6    5    6 ar
     7    6    7 ar
     8    7    8 ar
     9    6    9 1
    10    9   10 2
    11    9   11 1
    12   11   12 1
    13    1   13 1
    14    1   14 1
    15    1   15 1
    16    4   16 1
    17    5   17 1
    18    7   18 1
    19    8   19 1
    20   12   20 1
    21   12   21 1
    22   12   22 1
