@<TRIPOS>MOLECULE
6-chloro-1H-pyrimidine-2,4-dione
   12    12     0     0     0
SMALL
USER_CHARGES

@<TRIPOS>ATOM
      1 C1         -0.7215    0.6822    0.9951 C.2       1 MOL        -0.3000
      2 C2         -0.7260   -0.8010    1.0047 C.2       1 MOL         0.7140
      3 O1         -1.3471   -1.4209    1.8632 O.2       1 MOL        -0.5961
      4 N1          0.0109   -1.3958   -0.0117 N.am      1 MOL        -0.5851
      5 C3          0.7315   -0.7289   -1.0081 C.2       1 MOL         0.8130
      6 O2          1.3652   -1.3220   -1.8814 O.2       1 MOL        -0.6255
      7 N2          0.6703    0.6550   -0.9274 N.am      1 MOL        -0.4769
      8 C4         -0.0326    1.3123    0.0418 C.2       1 MOL         0.1894
      9 Cl1         0.0493    3.0191   -0.0762 Cl        1 MOL        -0.0475
     10 H1         -1.2802    1.2025    1.7641 H         1 MOL         0.1931
     11 H2          0.0282   -2.4114   -0.0334 H         1 MOL         0.3585
     12 H3          1.1706    1.2037   -1.6201 H         1 MOL         0.3631
@<TRIPOS>BOND
     1    1    8 2
     2    1    2 1
     3    2    3 2
     4    2    4 am
     5    4    5 am
     6    5    6 2
     7    5    7 am
     8    7    8 1
     9    8    9 1
    10    1   10 1
    11    4   11 1
    12    7   12 1
