@<TRIPOS>MOLECULE
1-methylimidazole
   12    12     0     0     0
SMALL
USER_CHARGES

@<TRIPOS>ATOM
      1 C1          3.6420   -2.4130   -1.7031 C.3       1 MOL         0.0260
      2 N1          2.3537   -2.0366   -1.1813 N.pl3     1 MOL        -0.2109
      3 C2          1.9499   -0.7740   -0.8259 C.2       1 MOL        -0.2631
      4 C3          0.6549   -0.7784   -0.3640 C.2       1 MOL         0.2931
      5 N2          0.2603   -2.0844   -0.4416 N.2       1 MOL        -0.6688
      6 C4          1.3133   -2.8020   -0.9371 C.2       1 MOL         0.3898
      7 H1          3.5987   -2.3408   -2.7931 H         1 MOL         0.0527
      8 H2          4.4067   -1.7399   -1.3055 H         1 MOL         0.0527
      9 H3          3.8714   -3.4371   -1.3955 H         1 MOL         0.0527
     10 H4          2.6379    0.0541   -0.9336 H         1 MOL         0.1746
     11 H5          0.0268    0.0214   -0.0064 H         1 MOL         0.0422
     12 H6          1.2742   -3.8711   -1.1008 H         1 MOL         0.0591
@<TRIPOS>BOND
     1    1    2 1
     2    2    6 1
     3    2    3 1
     4    3    4 2
     5    4    5 1
     6    5    6 2
     7    1    7 1
     8    1    8 1
     9    1    9 1
    10    3   10 1
    11    4   11 1
    12    6   12 1
