@<TRIPOS>MOLECULE
4-methylpyridine
   14    14     0     0     0
SMALL
USER_CHARGES

@<TRIPOS>ATOM
      1 C1          2.3469    0.8982    1.0445 C.3       1 MOL        -0.0619
      2 C2          1.3879   -0.0684    1.6522 C.ar      1 MOL        -0.0387
      3 C3          0.2265   -0.4197    0.9733 C.ar      1 MOL        -0.2492
      4 C4         -0.6317   -1.3224    1.5803 C.ar      1 MOL         0.3956
      5 N1         -0.4092   -1.8816    2.7908 N.ar      1 MOL        -0.6675
      6 C5          0.7299   -1.5161    3.4206 C.ar      1 MOL         0.3956
      7 C6          1.6520   -0.6227    2.8997 C.ar      1 MOL        -0.2492
      8 H1          3.0861    0.3629    0.4408 H         1 MOL         0.0498
      9 H2          1.8242    1.6190    0.4071 H         1 MOL         0.0498
     10 H3          2.8691    1.4699    1.8190 H         1 MOL         0.0498
     11 H4         -0.0080   -0.0059   -0.0017 H         1 MOL         0.1427
     12 H5         -1.5505   -1.6300    1.0917 H         1 MOL         0.0203
     13 H6          0.8895   -1.9761    4.3902 H         1 MOL         0.0203
     14 H7          2.5490   -0.3683    3.4537 H         1 MOL         0.1427
@<TRIPOS>BOND
     1    1    2 1
     2    2    7 ar
     3    2    3 ar
     4    3    4 ar
     5    4    5 ar
     6    5    6 ar
     7    6    7 ar
     8    1    8 1
     9    1    9 1
    10    1   10 1
    11    3   11 1
    12    4   12 1
    13    6   13 1
    14    7   14 1
