@<TRIPOS>MOLECULE
trichloro(nitro)methane
    7     6     0     0     0
SMALL
USER_CHARGES

@<TRIPOS>ATOM
      1 C1          0.5772   -0.0296    0.1599 C.3       1 MOL         0.1828
      2 N1         -0.8845    0.0632   -0.2386 N.pl3     1 MOL         0.2319
      3 O1         -1.4031   -0.8868   -0.8419 O.2       1 MOL        -0.1475
      4 O2         -1.4901    1.1048    0.0616 O.3       1 MOL        -0.1475
      5 Cl1         0.6842   -1.4348    1.2175 Cl        1 MOL        -0.0399
      6 Cl2         1.4671   -0.2248   -1.3491 Cl        1 MOL        -0.0399
      7 Cl3         1.0498    1.4486    0.9980 Cl        1 MOL        -0.0399
@<TRIPOS>BOND
     1    1    2 1
     2    2    3 2
     3    2    4 1
     4    1    5 1
     5    1    6 1
     6    1    7 1
