@<TRIPOS>MOLECULE
isoprene
   13    12     0     0     0
SMALL
USER_CHARGES

@<TRIPOS>ATOM
      1 C1         -0.5216   -2.4669   -1.0269 C.3       1 MOL        -0.0619
      2 C2         -0.6566   -2.6892    0.4542 C.2       1 MOL        -0.0802
      3 C3         -0.9685   -3.9040    0.9358 C.2       1 MOL        -0.2152
      4 C4         -0.4458   -1.5741    1.3661 C.2       1 MOL        -0.1288
      5 C5         -0.1320   -0.3173    1.0280 C.2       1 MOL        -0.2111
      6 H1         -1.4824   -2.1759   -1.4649 H         1 MOL         0.0428
      7 H2         -0.1890   -3.3714   -1.5487 H         1 MOL         0.0428
      8 H3          0.2146   -1.6834   -1.2364 H         1 MOL         0.0428
      9 H4         -1.0692   -4.0789    2.0023 H         1 MOL         0.1130
     10 H5         -1.1321   -4.7564    0.2835 H         1 MOL         0.1130
     11 H6         -0.5555   -1.7884    2.4280 H         1 MOL         0.1182
     12 H7          0.0010    0.4342    1.7998 H         1 MOL         0.1124
     13 H8         -0.0001    0.0000   -0.0000 H         1 MOL         0.1124
@<TRIPOS>BOND
     1    1    2 1
     2    2    3 2
     3    2    4 1
     4    4    5 2
     5    1    6 1
     6    1    7 1
     7    1    8 1
     8    3    9 1
     9    3   10 1
    10    4   11 1
    11    5   12 1
    12    5   13 1
