@<TRIPOS>MOLECULE
(2S)-2-methyltetrahydrofuran
   16    16     0     0     0
SMALL
USER_CHARGES

@<TRIPOS>ATOM
      1 C1          0.5047   -4.0085    1.1886 C.3       1 MOL        -0.0950
      2 C2          0.2544   -2.6641    0.5333 C.3       1 MOL         0.1365
      3 H1         -0.8070   -2.5716    0.2732 H         1 MOL         0.0379
      4 C3          0.6909   -1.4844    1.3846 C.3       1 MOL        -0.1080
      5 C4          0.9499   -0.4348    0.3331 C.3       1 MOL        -0.1098
      6 C5          1.5629   -1.2542   -0.7826 C.3       1 MOL         0.1261
      7 O1          1.0007   -2.5718   -0.6918 O.3       1 MOL        -0.4246
      8 H2          1.5606   -4.1159    1.4543 H         1 MOL         0.0444
      9 H3         -0.0919   -4.1089    2.1002 H         1 MOL         0.0444
     10 H4          0.2359   -4.8230    0.5094 H         1 MOL         0.0444
     11 H5         -0.0627   -1.1875    2.1192 H         1 MOL         0.0540
     12 H6          1.6223   -1.7067    1.9194 H         1 MOL         0.0540
     13 H7         -0.0001   -0.0004   -0.0003 H         1 MOL         0.0525
     14 H8          1.5984    0.3771    0.6721 H         1 MOL         0.0525
     15 H9          1.3602   -0.8342   -1.7718 H         1 MOL         0.0453
     16 H10         2.6469   -1.3459   -0.6567 H         1 MOL         0.0453
@<TRIPOS>BOND
     1    1    2 1
     2    2    3 1
     3    2    7 1
     4    2    4 1
     5    4    5 1
     6    5    6 1
     7    6    7 1
     8    1    8 1
     9    1    9 1
    10    1   10 1
    11    4   11 1
    12    4   12 1
    13    5   13 1
    14    5   14 1
    15    6   15 1
    16    6   16 1
