@<TRIPOS>MOLECULE
glycerol
   14    13     0     0     0
SMALL
USER_CHARGES

@<TRIPOS>ATOM
      1 C1          0.9856    0.2573   -2.5348 C.3       1 MOL         0.1134
      2 C2          1.1440    1.2331   -1.3744 C.3       1 MOL         0.1398
      3 C3          0.9523    0.5385   -0.0326 C.3       1 MOL         0.1134
      4 O1          1.1111    1.4951    1.0099 O.3       1 MOL        -0.5962
      5 O2          2.4671    1.7733   -1.4064 O.3       1 MOL        -0.5904
      6 O3          1.1711    0.9412   -3.7698 O.3       1 MOL        -0.5962
      7 H1         -0.0099   -0.1975   -2.5458 H         1 MOL         0.0321
      8 H2          1.7366   -0.5375   -2.4872 H         1 MOL         0.0321
      9 H3          0.4552    2.0798   -1.4720 H         1 MOL         0.0632
     10 H4          1.6987   -0.2487    0.1169 H         1 MOL         0.0321
     11 H5         -0.0518    0.1109    0.0500 H         1 MOL         0.0321
     12 H6          0.9828    1.0191    1.8455 H         1 MOL         0.4048
     13 H7          2.5568    2.2223   -2.2599 H         1 MOL         0.4151
     14 H8          1.0609    0.2809   -4.4720 H         1 MOL         0.4048
@<TRIPOS>BOND
     1    1    2 1
     2    2    3 1
     3    3    4 1
     4    2    5 1
     5    1    6 1
     6    1    7 1
     7    1    8 1
     8    2    9 1
     9    3   10 1
    10    3   11 1
    11    4   12 1
    12    5   13 1
    13    6   14 1
