@<TRIPOS>MOLECULE
1,2,3,4-tetrachlorodibenzo-p-dioxin
   22    24     0     0     0
SMALL
USER_CHARGES

@<TRIPOS>ATOM
      1 C1         -1.8584    0.7400    0.8000 C.ar      1 MOL        -0.1235
      2 C2         -1.0039   -0.2568    0.3257 C.ar      1 MOL        -0.1234
      3 C3         -1.4367   -1.5819    0.2693 C.ar      1 MOL        -0.1089
      4 C4         -2.7266   -1.9051    0.6889 C.ar      1 MOL         0.0586
      5 C5         -3.5799   -0.9097    1.1626 C.ar      1 MOL         0.0586
      6 C6         -3.1487    0.4152    1.2196 C.ar      1 MOL        -0.1089
      7 O1         -4.8561   -1.1828    1.5855 O.3       1 MOL        -0.2073
      8 C7         -5.2389   -2.4982    1.5123 C.ar      1 MOL         0.0857
      9 C8         -4.3856   -3.4936    1.0385 C.ar      1 MOL         0.0857
     10 C9         -4.8168   -4.8184    0.9815 C.ar      1 MOL         0.0271
     11 C10        -6.1071   -5.1433    1.4010 C.ar      1 MOL         0.0201
     12 C11        -6.9616   -4.1465    1.8755 C.ar      1 MOL         0.0201
     13 C12        -6.5287   -2.8214    1.9320 C.ar      1 MOL         0.0271
     14 Cl1        -7.5652   -1.5541    2.5155 Cl        1 MOL        -0.0237
     15 Cl2        -8.5735   -4.5517    2.3985 Cl        1 MOL        -0.0316
     16 Cl3        -6.6450   -6.7989    1.3310 Cl        1 MOL        -0.0316
     17 Cl4        -3.7240   -6.0323    0.3870 Cl        1 MOL        -0.0237
     18 O2         -3.1093   -3.2205    0.6157 O.3       1 MOL        -0.2073
     19 H1         -1.5177    1.7705    0.8426 H         1 MOL         0.1436
     20 H2          0.0000   -0.0000    0.0001 H         1 MOL         0.1436
     21 H3         -0.7659   -2.3527   -0.1002 H         1 MOL         0.1598
     22 H4         -3.8085    1.1963    1.5873 H         1 MOL         0.1598
@<TRIPOS>BOND
     1    1    6 ar
     2    1    2 ar
     3    2    3 ar
     4    3    4 ar
     5    4   18 1
     6    4    5 ar
     7    5    6 ar
     8    5    7 1
     9    7    8 1
    10    8   13 ar
    11    8    9 ar
    12    9   10 ar
    13   10   11 ar
    14   11   12 ar
    15   12   13 ar
    16   13   14 1
    17   12   15 1
    18   11   16 1
    19   10   17 1
    20    9   18 1
    21    1   19 1
    22    2   20 1
    23    3   21 1
    24    6   22 1
