@<TRIPOS>MOLECULE
2-ethoxyethanol
   16    15     0     0     0
SMALL
USER_CHARGES

@<TRIPOS>ATOM
      1 C1         -2.0385    0.0804    3.9166 C.3       1 MOL        -0.0959
      2 C2         -2.1484    0.3165    2.4253 C.3       1 MOL         0.1293
      3 O1         -0.8526    0.2362    1.8472 O.3       1 MOL        -0.4170
      4 C3         -0.8936    0.4506    0.4416 C.3       1 MOL         0.1227
      5 C4          0.5136    0.3528   -0.1152 C.3       1 MOL         0.1311
      6 O2          1.3268    1.3434    0.5020 O.3       1 MOL        -0.5963
      7 H1         -3.0209    0.1355    4.3938 H         1 MOL         0.0449
      8 H2         -1.6009   -0.9023    4.1206 H         1 MOL         0.0449
      9 H3         -1.3798    0.8240    4.3773 H         1 MOL         0.0449
     10 H4         -2.5636    1.3083    2.2233 H         1 MOL         0.0221
     11 H5         -2.7883   -0.4409    1.9628 H         1 MOL         0.0221
     12 H6         -1.5462   -0.3087   -0.0001 H         1 MOL         0.0369
     13 H7         -1.3094    1.4458    0.2588 H         1 MOL         0.0369
     14 H8          0.5237    0.5283   -1.1955 H         1 MOL         0.0359
     15 H9          0.9443   -0.6288    0.1029 H         1 MOL         0.0359
     16 H10         2.2154    1.2508    0.1228 H         1 MOL         0.4015
@<TRIPOS>BOND
     1    1    2 1
     2    2    3 1
     3    3    4 1
     4    4    5 1
     5    5    6 1
     6    1    7 1
     7    1    8 1
     8    1    9 1
     9    2   10 1
    10    2   11 1
    11    4   12 1
    12    4   13 1
    13    5   14 1
    14    5   15 1
    15    6   16 1
