@<TRIPOS>MOLECULE
3,5,5-trimethylcyclohex-2-en-1-one
   24    24     0     0     0
SMALL
USER_CHARGES

@<TRIPOS>ATOM
      1 C1          0.1358   -2.7138    1.0776 C.3       1 MOL        -0.0741
      2 C2          0.9790   -1.4745    1.1625 C.2       1 MOL        -0.0367
      3 C3          1.7066   -1.2020    2.2557 C.2       1 MOL        -0.2624
      4 C4          2.4902    0.0535    2.3483 C.2       1 MOL         0.5680
      5 O1          3.1579    0.2806    3.3559 O.2       1 MOL        -0.5397
      6 C5          2.3870    1.0607    1.2228 C.3       1 MOL        -0.1751
      7 C6          2.1416    0.3972   -0.1424 C.3       1 MOL        -0.0448
      8 C7          0.9390   -0.5680   -0.0429 C.3       1 MOL        -0.0553
      9 C8          3.4058   -0.3591   -0.6038 C.3       1 MOL        -0.0903
     10 C9          1.8307    1.4850   -1.1861 C.3       1 MOL        -0.0903
     11 H1          0.7127   -3.5364    0.6468 H         1 MOL         0.0516
     12 H2         -0.7420   -2.5339    0.4507 H         1 MOL         0.0516
     13 H3         -0.2073   -3.0084    2.0733 H         1 MOL         0.0516
     14 H4          1.7308   -1.8662    3.1126 H         1 MOL         0.1481
     15 H5          1.5691    1.7461    1.4774 H         1 MOL         0.0728
     16 H6          3.3156    1.6437    1.1979 H         1 MOL         0.0728
     17 H7          0.0003    0.0004   -0.0001 H         1 MOL         0.0588
     18 H8          0.8937   -1.1755   -0.9564 H         1 MOL         0.0588
     19 H9          3.2110   -0.8179   -1.5657 H         1 MOL         0.0391
     20 H10         3.6471   -1.1215    0.1270 H         1 MOL         0.0391
     21 H11         4.2258    0.3438   -0.6891 H         1 MOL         0.0391
     22 H12         1.6577    1.0168   -2.1491 H         1 MOL         0.0391
     23 H13         2.6736    2.1643   -1.2556 H         1 MOL         0.0391
     24 H14         0.9447    2.0308   -0.8798 H         1 MOL         0.0391
@<TRIPOS>BOND
     1    1    2 1
     2    2    8 1
     3    2    3 2
     4    3    4 1
     5    4    5 2
     6    4    6 1
     7    6    7 1
     8    7    8 1
     9    7    9 1
    10    7   10 1
    11    1   11 1
    12    1   12 1
    13    1   13 1
    14    3   14 1
    15    6   15 1
    16    6   16 1
    17    8   17 1
    18    8   18 1
    19    9   19 1
    20    9   20 1
    21    9   21 1
    22   10   22 1
    23   10   23 1
    24   10   24 1
