@<TRIPOS>MOLECULE
pyrrolidine
   14    14     0     0     0
SMALL
USER_CHARGES

@<TRIPOS>ATOM
      1 C1          0.2644    0.4683    1.1553 C.3       1 MOL        -0.0857
      2 C2          0.0092    1.2687   -0.1164 C.3       1 MOL        -0.0857
      3 C3         -0.4197    0.2423   -1.1506 C.3       1 MOL         0.1504
      4 N1          0.1683   -1.0039   -0.6679 N.3       1 MOL        -0.8123
      5 C4         -0.0222   -0.9754    0.7795 C.3       1 MOL         0.1504
      6 H1         -0.3728    0.8026    1.9804 H         1 MOL         0.0467
      7 H2          1.3085    0.5901    1.4667 H         1 MOL         0.0467
      8 H3         -0.7591    2.0339    0.0328 H         1 MOL         0.0467
      9 H4          0.9311    1.7737   -0.4280 H         1 MOL         0.0467
     10 H5         -1.5128    0.1609   -1.1806 H         1 MOL         0.0345
     11 H6         -0.0649    0.4963   -2.1533 H         1 MOL         0.0345
     12 H7         -0.3006   -1.8091   -1.0788 H         1 MOL         0.3581
     13 H8         -1.0559   -1.2397    1.0324 H         1 MOL         0.0345
     14 H9          0.6468   -1.6738    1.2904 H         1 MOL         0.0345
@<TRIPOS>BOND
     1    1    5 1
     2    1    2 1
     3    2    3 1
     4    3    4 1
     5    4    5 1
     6    1    6 1
     7    1    7 1
     8    2    8 1
     9    2    9 1
    10    3   10 1
    11    3   11 1
    12    4   12 1
    13    5   13 1
    14    5   14 1
