@<TRIPOS>MOLECULE
dimethoxymethane
   13    12     0     0     0
SMALL
USER_CHARGES

@<TRIPOS>ATOM
      1 C1          1.1078    0.1076    0.0304 C.3       1 MOL         0.1191
      2 O1          1.3911    1.4995    0.0855 O.3       1 MOL        -0.4459
      3 C2          2.7630    1.7603    0.3811 C.3       1 MOL         0.3132
      4 O2          3.6773    1.2212   -0.5734 O.3       1 MOL        -0.4459
      5 C3          3.7842    2.0343   -1.7345 C.3       1 MOL         0.1191
      6 H1          0.0495   -0.0408   -0.1979 H         1 MOL         0.0365
      7 H2          1.3525   -0.3532    0.9907 H         1 MOL         0.0365
      8 H3          1.7150   -0.3479   -0.7554 H         1 MOL         0.0365
      9 H4          2.8986    2.8457    0.4467 H         1 MOL         0.0608
     10 H5          3.0117    1.3462    1.3648 H         1 MOL         0.0608
     11 H6          4.4922    1.5789   -2.4283 H         1 MOL         0.0365
     12 H7          4.1231    3.0304   -1.4459 H         1 MOL         0.0365
     13 H8          2.8026    2.1029   -2.2051 H         1 MOL         0.0365
@<TRIPOS>BOND
     1    1    2 1
     2    2    3 1
     3    3    4 1
     4    4    5 1
     5    1    6 1
     6    1    7 1
     7    1    8 1
     8    3    9 1
     9    3   10 1
    10    5   11 1
    11    5   12 1
    12    5   13 1
