@<TRIPOS>MOLECULE
1-(4-methoxyphenyl)ethanone
   21    21     0     0     0
SMALL
USER_CHARGES

@<TRIPOS>ATOM
      1 C1          1.2626    0.1365   -2.2515 C.3       1 MOL        -0.1993
      2 C2          1.9295   -1.0140   -1.5659 C.2       1 MOL         0.5820
      3 O1          2.4684   -1.8709   -2.2586 O.2       1 MOL        -0.5387
      4 C3          1.8851   -1.0363   -0.1124 C.ar      1 MOL        -0.2134
      5 C4          2.9210   -1.6309    0.6081 C.ar      1 MOL        -0.0513
      6 C5          2.8783   -1.6520    2.0022 C.ar      1 MOL        -0.1935
      7 C6          1.7997   -1.0786    2.6757 C.ar      1 MOL         0.1484
      8 C7          0.7638   -0.4841    1.9551 C.ar      1 MOL        -0.1935
      9 C8          0.8066   -0.4630    0.5610 C.ar      1 MOL        -0.0513
     10 O2          1.7572   -1.0988    4.0360 O.3       1 MOL        -0.3235
     11 C9          2.8488   -1.7225    4.7105 C.3       1 MOL         0.1103
     12 H1          0.2005   -0.0341   -2.4883 H         1 MOL         0.0644
     13 H2          1.7646    0.4376   -3.1841 H         1 MOL         0.0644
     14 H3          1.2502    1.0540   -1.6365 H         1 MOL         0.0644
     15 H4          3.7661   -2.0813    0.0940 H         1 MOL         0.1456
     16 H5          3.6886   -2.1157    2.5579 H         1 MOL         0.1482
     17 H6         -0.0793   -0.0363    2.4742 H         1 MOL         0.1482
     18 H7         -0.0055    0.0036    0.0092 H         1 MOL         0.1456
     19 H8          2.6809   -1.6643    5.7850 H         1 MOL         0.0476
     20 H9          3.7718   -1.2120    4.4384 H         1 MOL         0.0476
     21 H10         2.8960   -2.7650    4.3989 H         1 MOL         0.0476
@<TRIPOS>BOND
     1    1    2 1
     2    2    3 2
     3    2    4 1
     4    4    9 ar
     5    4    5 ar
     6    5    6 ar
     7    6    7 ar
     8    7    8 ar
     9    8    9 ar
    10    7   10 1
    11   10   11 1
    12    1   12 1
    13    1   13 1
    14    1   14 1
    15    5   15 1
    16    6   16 1
    17    8   17 1
    18    9   18 1
    19   11   19 1
    20   11   20 1
    21   11   21 1
