@<TRIPOS>MOLECULE
(2R)-2-methylbutan-1-ol
   18    17     0     0     0
SMALL
USER_CHARGES

@<TRIPOS>ATOM
      1 C1          1.9476   -0.4272   -1.8511 C.3       1 MOL        -0.0914
      2 C2          2.1271    0.0762   -0.4262 C.3       1 MOL        -0.0757
      3 C3          2.2498    1.6090   -0.3259 C.3       1 MOL        -0.0604
      4 H1          1.3337    2.0583   -0.7308 H         1 MOL         0.0439
      5 C4          2.3507    2.0128    1.1495 C.3       1 MOL        -0.0887
      6 C5          3.4396    2.1790   -1.1097 C.3       1 MOL         0.1335
      7 O1          4.6642    1.6396   -0.6324 O.3       1 MOL        -0.5984
      8 H2          1.8641   -1.5173   -1.8844 H         1 MOL         0.0317
      9 H3          1.0539    0.0051   -2.3116 H         1 MOL         0.0317
     10 H4          2.8124   -0.1445   -2.4601 H         1 MOL         0.0317
     11 H5          3.0364   -0.3809   -0.0158 H         1 MOL         0.0470
     12 H6          1.2936   -0.2833    0.1891 H         1 MOL         0.0470
     13 H7          2.4398    3.0981    1.2654 H         1 MOL         0.0375
     14 H8          3.2231    1.5481    1.6208 H         1 MOL         0.0375
     15 H9          1.4630    1.6868    1.7018 H         1 MOL         0.0375
     16 H10         3.4818    3.2689   -1.0208 H         1 MOL         0.0193
     17 H11         3.3479    1.9349   -2.1737 H         1 MOL         0.0193
     18 H12         5.3724    2.0368   -1.1649 H         1 MOL         0.3968
@<TRIPOS>BOND
     1    1    2 1
     2    2    3 1
     3    3    4 1
     4    3    5 1
     5    3    6 1
     6    6    7 1
     7    1    8 1
     8    1    9 1
     9    1   10 1
    10    2   11 1
    11    2   12 1
    12    5   13 1
    13    5   14 1
    14    5   15 1
    15    6   16 1
    16    6   17 1
    17    7   18 1
