@<TRIPOS>MOLECULE
pyridine
   11    11     0     0     0
SMALL
USER_CHARGES

@<TRIPOS>ATOM
      1 C1          1.3879   -0.0684    1.6522 C.ar      1 MOL        -0.0948
      2 C2          0.2265   -0.4197    0.9733 C.ar      1 MOL        -0.2460
      3 C3         -0.6317   -1.3224    1.5803 C.ar      1 MOL         0.3932
      4 N1         -0.4092   -1.8816    2.7908 N.ar      1 MOL        -0.6655
      5 C4          0.7299   -1.5161    3.4206 C.ar      1 MOL         0.3932
      6 C5          1.6520   -0.6227    2.8997 C.ar      1 MOL        -0.2460
      7 H1          2.0856    0.6366    1.2102 H         1 MOL         0.1357
      8 H2          0.0003   -0.0005   -0.0002 H         1 MOL         0.1437
      9 H3         -1.5509   -1.6283    1.0918 H         1 MOL         0.0213
     10 H4          0.8883   -1.9761    4.3905 H         1 MOL         0.0213
     11 H5          2.5508   -0.3630    3.4473 H         1 MOL         0.1437
@<TRIPOS>BOND
     1    1    6 ar
     2    1    2 ar
     3    2    3 ar
     4    3    4 ar
     5    4    5 ar
     6    5    6 ar
     7    1    7 1
     8    2    8 1
     9    3    9 1
    10    5   10 1
    11    6   11 1
