@<TRIPOS>MOLECULE
bromomethylbenzene
   15    15     0     0     0
SMALL
USER_CHARGES

@<TRIPOS>ATOM
      1 C1          1.8851   -1.0363   -0.1124 C.ar      1 MOL        -0.1210
      2 C2          2.9210   -1.6309    0.6081 C.ar      1 MOL        -0.1294
      3 C3          2.8783   -1.6520    2.0022 C.ar      1 MOL        -0.1119
      4 C4          1.7997   -1.0786    2.6757 C.ar      1 MOL        -0.0930
      5 C5          0.7638   -0.4841    1.9551 C.ar      1 MOL        -0.1119
      6 C6          0.8066   -0.4630    0.5610 C.ar      1 MOL        -0.1294
      7 C7          1.7548   -1.1014    4.1663 C.3       1 MOL         0.0394
      8 Br1         2.6201    0.4934    4.8679 Br        1 MOL        -0.1731
      9 H1          1.9176   -1.0210   -1.1980 H         1 MOL         0.1331
     10 H2          3.7604   -2.0783    0.0841 H         1 MOL         0.1343
     11 H3          3.6899   -2.1173    2.5553 H         1 MOL         0.1352
     12 H4         -0.0804   -0.0348    2.4713 H         1 MOL         0.1352
     13 H5         -0.0006   -0.0010    0.0001 H         1 MOL         0.1343
     14 H6          2.2831   -1.9656    4.5846 H         1 MOL         0.0791
     15 H7          0.7284   -1.1071    4.5509 H         1 MOL         0.0791
@<TRIPOS>BOND
     1    1    6 ar
     2    1    2 ar
     3    2    3 ar
     4    3    4 ar
     5    4    5 ar
     6    5    6 ar
     7    4    7 1
     8    7    8 1
     9    1    9 1
    10    2   10 1
    11    3   11 1
    12    5   12 1
    13    6   13 1
    14    7   14 1
    15    7   15 1
