@<TRIPOS>MOLECULE
1-benzylimidazole
   22    23     0     0     0
SMALL
USER_CHARGES

@<TRIPOS>ATOM
      1 C1          1.8851   -1.0363   -0.1124 C.ar      1 MOL        -0.1173
      2 C2          2.9210   -1.6309    0.6081 C.ar      1 MOL        -0.1291
      3 C3          2.8783   -1.6520    2.0022 C.ar      1 MOL        -0.1088
      4 C4          1.7997   -1.0786    2.6757 C.ar      1 MOL        -0.1202
      5 C5          0.7638   -0.4841    1.9551 C.ar      1 MOL        -0.1088
      6 C6          0.8066   -0.4630    0.5610 C.ar      1 MOL        -0.1291
      7 C7          1.7548   -1.1014    4.1663 C.3       1 MOL         0.0886
      8 N1          2.3952    0.0815    4.7508 N.pl3     1 MOL        -0.2075
      9 C8          3.7161    0.2103    5.1004 C.2       1 MOL        -0.2556
     10 C9          3.9724    1.4564    5.6221 C.2       1 MOL         0.2898
     11 N2          2.7697    2.1041    5.5879 N.2       1 MOL        -0.6669
     12 C10         1.8532    1.2391    5.0577 C.2       1 MOL         0.3906
     13 H1          1.9176   -1.0210   -1.1980 H         1 MOL         0.1346
     14 H2          3.7604   -2.0783    0.0841 H         1 MOL         0.1358
     15 H3          3.6899   -2.1173    2.5553 H         1 MOL         0.1319
     16 H4         -0.0804   -0.0348    2.4713 H         1 MOL         0.1319
     17 H5         -0.0006   -0.0010    0.0001 H         1 MOL         0.1358
     18 H6          0.7207   -1.1415    4.5441 H         1 MOL         0.0661
     19 H7          2.2590   -1.9904    4.5777 H         1 MOL         0.0661
     20 H8          4.3906   -0.6213    4.9450 H         1 MOL         0.1739
     21 H9          4.8841    1.8960    5.9931 H         1 MOL         0.0408
     22 H10         0.8115    1.4963    4.9165 H         1 MOL         0.0573
@<TRIPOS>BOND
     1    1    6 ar
     2    1    2 ar
     3    2    3 ar
     4    3    4 ar
     5    4    5 ar
     6    5    6 ar
     7    4    7 1
     8    7    8 1
     9    8   12 1
    10    8    9 1
    11    9   10 2
    12   10   11 1
    13   11   12 2
    14    1   13 1
    15    2   14 1
    16    3   15 1
    17    5   16 1
    18    6   17 1
    19    7   18 1
    20    7   19 1
    21    9   20 1
    22   10   21 1
    23   12   22 1
