@<TRIPOS>MOLECULE
4-chloro-3-methyl-phenol
   16    16     0     0     0
SMALL
USER_CHARGES

@<TRIPOS>ATOM
      1 C1          1.9683   -1.0326   -1.6047 C.3       1 MOL        -0.0619
      2 C2          1.8851   -1.0363   -0.1124 C.ar      1 MOL        -0.0296
      3 C3          2.9210   -1.6309    0.6081 C.ar      1 MOL        -0.1556
      4 C4          2.8783   -1.6520    2.0022 C.ar      1 MOL         0.1296
      5 C5          1.7997   -1.0786    2.6757 C.ar      1 MOL        -0.2118
      6 C6          0.7638   -0.4841    1.9551 C.ar      1 MOL        -0.0818
      7 C7          0.8066   -0.4630    0.5610 C.ar      1 MOL        -0.0208
      8 Cl1        -0.4934    0.2821   -0.2958 Cl        1 MOL        -0.0973
      9 O1          3.8889   -2.2320    2.7059 O.3       1 MOL        -0.4946
     10 H1          2.4861   -0.1320   -1.9485 H         1 MOL         0.0539
     11 H2          2.5092   -1.9125   -1.9682 H         1 MOL         0.0539
     12 H3          0.9690   -1.0592   -2.0519 H         1 MOL         0.0539
     13 H4          3.7645   -2.0782    0.0872 H         1 MOL         0.1553
     14 H5          1.7606   -1.0923    3.7617 H         1 MOL         0.1382
     15 H6         -0.0697   -0.0419    2.4950 H         1 MOL         0.1478
     16 H7          3.7157   -2.1670    3.6585 H         1 MOL         0.4208
@<TRIPOS>BOND
     1    1    2 1
     2    2    7 ar
     3    2    3 ar
     4    3    4 ar
     5    4    5 ar
     6    5    6 ar
     7    6    7 ar
     8    7    8 1
     9    4    9 1
    10    1   10 1
    11    1   11 1
    12    1   12 1
    13    3   13 1
    14    5   14 1
    15    6   15 1
    16    9   16 1
