@<TRIPOS>MOLECULE
morpholine
   15    15     0     0     0
SMALL
USER_CHARGES

@<TRIPOS>ATOM
      1 C1          0.2626   -1.3894   -0.0634 C.3       1 MOL         0.1240
      2 C2          1.2055   -0.3403   -0.6416 C.3       1 MOL         0.1258
      3 O1          1.0983    0.8808    0.0925 O.3       1 MOL        -0.4171
      4 C3         -0.2374    1.3863    0.0488 C.3       1 MOL         0.1258
      5 C4         -1.2071    0.3696    0.6399 C.3       1 MOL         0.1240
      6 N1         -1.1220   -0.9071   -0.0762 N.3       1 MOL        -0.8137
      7 H1          0.5532   -1.6269    0.9672 H         1 MOL         0.0380
      8 H2          0.3306   -2.3116   -0.6495 H         1 MOL         0.0380
      9 H3          2.2415   -0.6854   -0.5648 H         1 MOL         0.0539
     10 H4          0.9963   -0.1487   -1.7010 H         1 MOL         0.0539
     11 H5         -0.2629    2.3114    0.6333 H         1 MOL         0.0539
     12 H6         -0.4980    1.6393   -0.9861 H         1 MOL         0.0539
     13 H7         -0.9783    0.2057    1.7000 H         1 MOL         0.0380
     14 H8         -2.2304    0.7532    0.5766 H         1 MOL         0.0380
     15 H9         -1.7253   -1.5926    0.3771 H         1 MOL         0.3634
@<TRIPOS>BOND
     1    1    6 1
     2    1    2 1
     3    2    3 1
     4    3    4 1
     5    4    5 1
     6    5    6 1
     7    1    7 1
     8    1    8 1
     9    2    9 1
    10    2   10 1
    11    4   11 1
    12    4   12 1
    13    5   13 1
    14    5   14 1
    15    6   15 1
