@<TRIPOS>MOLECULE
1-iodobutane
   14    13     0     0     0
SMALL
USER_CHARGES

@<TRIPOS>ATOM
      1 C1         -0.0304    0.4285    1.0065 C.3       1 MOL        -0.0923
      2 C2          0.7904   -0.4199    1.9648 C.3       1 MOL        -0.0807
      3 C3          0.7704    0.1560    3.3812 C.3       1 MOL        -0.0766
      4 C4          1.5976   -0.7030    4.3368 C.3       1 MOL         0.0704
      5 I1          1.5597    0.1148    6.3120 I         1 MOL        -0.2549
      6 H1         -0.0105    0.0092   -0.0044 H         1 MOL         0.0356
      7 H2         -1.0732    0.4707    1.3360 H         1 MOL         0.0356
      8 H3          0.3535    1.4527    0.9618 H         1 MOL         0.0356
      9 H4          1.8227   -0.4767    1.6004 H         1 MOL         0.0399
     10 H5          0.3919   -1.4411    1.9722 H         1 MOL         0.0399
     11 H6          1.1625    1.1805    3.3627 H         1 MOL         0.0528
     12 H7         -0.2667    0.2177    3.7341 H         1 MOL         0.0528
     13 H8          2.6347   -0.7606    3.9881 H         1 MOL         0.0710
     14 H9          1.2039   -1.7253    4.3598 H         1 MOL         0.0710
@<TRIPOS>BOND
     1    1    2 1
     2    2    3 1
     3    3    4 1
     4    4    5 1
     5    1    6 1
     6    1    7 1
     7    1    8 1
     8    2    9 1
     9    2   10 1
    10    3   11 1
    11    3   12 1
    12    4   13 1
    13    4   14 1
