@<TRIPOS>MOLECULE
but-1-yne
   10     9     0     0     0
SMALL
USER_CHARGES

@<TRIPOS>ATOM
      1 C1          1.0319    0.2735    0.2461 C.3       1 MOL        -0.0897
      2 C2          1.4682   -0.3553    1.5586 C.3       1 MOL        -0.0042
      3 C3          1.3994   -1.8207    1.4971 C.1       1 MOL        -0.1391
      4 C4          1.3443   -3.0191    1.4503 C.1       1 MOL        -0.1628
      5 H1          1.0840    1.3667    0.2944 H         1 MOL         0.0392
      6 H2          0.0010   -0.0023   -0.0015 H         1 MOL         0.0392
      7 H3          1.6793   -0.0623   -0.5702 H         1 MOL         0.0392
      8 H4          0.8280    0.0122    2.3683 H         1 MOL         0.0575
      9 H5          2.4923   -0.0416    1.7893 H         1 MOL         0.0575
     10 H6          1.2950   -4.0821    1.4092 H         1 MOL         0.1632
@<TRIPOS>BOND
     1    1    2 1
     2    2    3 1
     3    3    4 3
     4    1    5 1
     5    1    6 1
     6    1    7 1
     7    2    8 1
     8    2    9 1
     9    4   10 1
