@<TRIPOS>MOLECULE
toluene
   15    15     0     0     0
SMALL
USER_CHARGES

@<TRIPOS>ATOM
      1 C1          1.9309   -1.0140   -1.6029 C.3       1 MOL        -0.0540
      2 C2          1.8851   -1.0363   -0.1124 C.ar      1 MOL        -0.0770
      3 C3          2.9210   -1.6309    0.6081 C.ar      1 MOL        -0.1305
      4 C4          2.8783   -1.6520    2.0022 C.ar      1 MOL        -0.1268
      5 C5          1.7997   -1.0786    2.6757 C.ar      1 MOL        -0.1350
      6 C6          0.7638   -0.4841    1.9551 C.ar      1 MOL        -0.1268
      7 C7          0.8066   -0.4630    0.5610 C.ar      1 MOL        -0.1305
      8 H1          2.4387   -0.1083   -1.9484 H         1 MOL         0.0436
      9 H2          2.4637   -1.8885   -1.9908 H         1 MOL         0.0436
     10 H3          0.9208   -1.0367   -2.0254 H         1 MOL         0.0436
     11 H4          3.7649   -2.0803    0.0915 H         1 MOL         0.1302
     12 H5          3.6850   -2.1148    2.5632 H         1 MOL         0.1298
     13 H6          1.7662   -1.0949    3.7611 H         1 MOL         0.1298
     14 H7         -0.0762   -0.0382    2.4794 H         1 MOL         0.1298
     15 H8         -0.0050    0.0028    0.0083 H         1 MOL         0.1302
@<TRIPOS>BOND
     1    1    2 1
     2    2    7 ar
     3    2    3 ar
     4    3    4 ar
     5    4    5 ar
     6    5    6 ar
     7    6    7 ar
     8    1    8 1
     9    1    9 1
    10    1   10 1
    11    3   11 1
    12    4   12 1
    13    5   13 1
    14    6   14 1
    15    7   15 1
