@<TRIPOS>MOLECULE
isobutyl 2-methylpropanoate
   26    25     0     0     0
SMALL
USER_CHARGES

@<TRIPOS>ATOM
      1 C1          1.9646   -1.5716   -5.6312 C.3       1 MOL        -0.0851
      2 C2          3.1733   -1.1109   -4.8138 C.3       1 MOL        -0.1150
      3 C3          4.1591   -0.3564   -5.7031 C.3       1 MOL        -0.0851
      4 C4          2.7463   -0.2387   -3.6300 C.3       1 MOL         0.1577
      5 O1          1.8767   -0.9792   -2.7675 O.3       1 MOL        -0.4462
      6 C5          1.4247   -0.3057   -1.6679 C.2       1 MOL         0.6352
      7 O2          1.7001    0.8503   -1.3743 O.2       1 MOL        -0.5368
      8 C6          0.5295   -1.2187   -0.8487 C.3       1 MOL        -0.1120
      9 C7          1.3668   -1.9782    0.1736 C.3       1 MOL        -0.0920
     10 C8         -0.5768   -0.4202   -0.1641 C.3       1 MOL        -0.0920
     11 H1          1.2532   -2.1137   -4.9989 H         1 MOL         0.0351
     12 H2          2.2677   -2.2376   -6.4464 H         1 MOL         0.0351
     13 H3          1.4346   -0.7193   -6.0688 H         1 MOL         0.0351
     14 H4          3.6676   -2.0101   -4.4244 H         1 MOL         0.0860
     15 H5          5.0278   -0.0229   -5.1258 H         1 MOL         0.0351
     16 H6          3.6883    0.5306   -6.1399 H         1 MOL         0.0351
     17 H7          4.5195   -0.9875   -6.5228 H         1 MOL         0.0351
     18 H8          3.6192    0.0707   -3.0457 H         1 MOL         0.0548
     19 H9          2.2181    0.6585   -3.9703 H         1 MOL         0.0548
     20 H10         0.0506   -1.9270   -1.5361 H         1 MOL         0.0809
     21 H11         0.7398   -2.6435    0.7760 H         1 MOL         0.0474
     22 H12         1.8862   -1.2908    0.8505 H         1 MOL         0.0474
     23 H13         2.1295   -2.5899   -0.3202 H         1 MOL         0.0474
     24 H14        -1.2225   -1.0782    0.4267 H         1 MOL         0.0474
     25 H15        -1.2015    0.0923   -0.9039 H         1 MOL         0.0474
     26 H16        -0.1652    0.3425    0.5063 H         1 MOL         0.0474
@<TRIPOS>BOND
     1    1    2 1
     2    2    3 1
     3    2    4 1
     4    4    5 1
     5    5    6 1
     6    6    7 2
     7    6    8 1
     8    8    9 1
     9    8   10 1
    10    1   11 1
    11    1   12 1
    12    1   13 1
    13    2   14 1
    14    3   15 1
    15    3   16 1
    16    3   17 1
    17    4   18 1
    18    4   19 1
    19    8   20 1
    20    9   21 1
    21    9   22 1
    22    9   23 1
    23   10   24 1
    24   10   25 1
    25   10   26 1
