@<TRIPOS>MOLECULE
butyl acetate
   20    19     0     0     0
SMALL
USER_CHARGES

@<TRIPOS>ATOM
      1 C1          0.3902   -1.0212   -0.0846 C.3       1 MOL        -0.0951
      2 C2         -0.5795   -2.0238    0.5201 C.3       1 MOL        -0.0742
      3 C3         -1.9307   -1.9925   -0.1885 C.3       1 MOL        -0.1128
      4 C4         -2.9047   -2.9950    0.4140 C.3       1 MOL         0.1420
      5 O1         -4.1377   -2.9158   -0.2877 O.3       1 MOL        -0.4422
      6 C5         -5.1227   -3.7628    0.1405 C.2       1 MOL         0.6299
      7 O2         -5.0318   -4.5665    1.0587 O.2       1 MOL        -0.5472
      8 C6         -6.3578   -3.5689   -0.6859 C.3       1 MOL        -0.1504
      9 H1          1.3562   -1.0504    0.4294 H         1 MOL         0.0361
     10 H2          0.5590   -1.2299   -1.1459 H         1 MOL         0.0361
     11 H3         -0.0104   -0.0065    0.0025 H         1 MOL         0.0361
     12 H4         -0.1467   -3.0287    0.4522 H         1 MOL         0.0379
     13 H5         -0.7117   -1.7988    1.5848 H         1 MOL         0.0379
     14 H6         -2.3650   -0.9865   -0.1342 H         1 MOL         0.0577
     15 H7         -1.8040   -2.2065   -1.2572 H         1 MOL         0.0577
     16 H8         -2.5191   -4.0157    0.3260 H         1 MOL         0.0626
     17 H9         -3.0903   -2.7736    1.4699 H         1 MOL         0.0626
     18 H10        -6.3344   -4.2371   -1.5502 H         1 MOL         0.0752
     19 H11        -6.4298   -2.5264   -1.0062 H         1 MOL         0.0752
     20 H12        -7.2387   -3.8090   -0.0833 H         1 MOL         0.0752
@<TRIPOS>BOND
     1    1    2 1
     2    2    3 1
     3    3    4 1
     4    4    5 1
     5    5    6 1
     6    6    7 2
     7    6    8 1
     8    1    9 1
     9    1   10 1
    10    1   11 1
    11    2   12 1
    12    2   13 1
    13    3   14 1
    14    3   15 1
    15    4   16 1
    16    4   17 1
    17    8   18 1
    18    8   19 1
    19    8   20 1
