@<TRIPOS>MOLECULE
(4S)-4-isopropenylcyclohexene-1-carbaldehyde
   25    25     0     0     0
SMALL
USER_CHARGES

@<TRIPOS>ATOM
      1 C1          5.8422   -2.3168   -2.6944 C.3       1 MOL        -0.0653
      2 C2          5.7457   -0.8209   -2.6399 C.2       1 MOL        -0.1083
      3 C3          6.7974   -0.0322   -2.9060 C.2       1 MOL        -0.2216
      4 C4          4.4076   -0.2585   -2.2718 C.3       1 MOL        -0.0297
      5 H1          4.5008    0.8351   -2.2757 H         1 MOL         0.0550
      6 C5          3.3361   -0.6546   -3.2969 C.3       1 MOL        -0.0719
      7 C6          1.9790   -0.0349   -2.9459 C.3       1 MOL        -0.0370
      8 C7          1.6548   -0.1446   -1.4874 C.2       1 MOL        -0.2147
      9 C8          2.5537   -0.4608   -0.5445 C.2       1 MOL        -0.0979
     10 C9          4.0025   -0.7091   -0.8571 C.3       1 MOL        -0.0555
     11 C10         0.2721    0.0838   -1.0609 C.2       1 MOL         0.5647
     12 O1         -0.6237    0.3597   -1.8491 O.2       1 MOL        -0.5270
     13 H2          6.1319   -2.7144   -1.7164 H         1 MOL         0.0430
     14 H3          4.8761   -2.7497   -2.9735 H         1 MOL         0.0430
     15 H4          6.5837   -2.6565   -3.4252 H         1 MOL         0.0430
     16 H5          6.7174    1.0488   -2.8638 H         1 MOL         0.1139
     17 H6          7.7630   -0.4494   -3.1722 H         1 MOL         0.1139
     18 H7          3.6259   -0.3351   -4.3057 H         1 MOL         0.0476
     19 H8          3.2383   -1.7486   -3.3302 H         1 MOL         0.0476
     20 H9          1.9803    1.0259   -3.2256 H         1 MOL         0.0619
     21 H10         1.2036   -0.5256   -3.5461 H         1 MOL         0.0619
     22 H11         2.2598   -0.5519    0.4979 H         1 MOL         0.1235
     23 H12         4.6185   -0.1780   -0.1205 H         1 MOL         0.0602
     24 H13         4.1986   -1.7805   -0.7198 H         1 MOL         0.0602
     25 H14         0.0954   -0.0096    0.0234 H         1 MOL        -0.0105
@<TRIPOS>BOND
     1    1    2 1
     2    2    3 2
     3    2    4 1
     4    4    5 1
     5    4   10 1
     6    4    6 1
     7    6    7 1
     8    7    8 1
     9    8    9 2
    10    9   10 1
    11    8   11 1
    12   11   12 2
    13    1   13 1
    14    1   14 1
    15    1   15 1
    16    3   16 1
    17    3   17 1
    18    6   18 1
    19    6   19 1
    20    7   20 1
    21    7   21 1
    22    9   22 1
    23   10   23 1
    24   10   24 1
    25   11   25 1
