@<TRIPOS>MOLECULE
[(1S)-1-methyl-2-nitrooxy-ethyl] nitrate
   17    16     0     0     0
SMALL
USER_CHARGES

@<TRIPOS>ATOM
      1 C1         -0.4238    0.8108    0.6004 C.3       1 MOL        -0.1382
      2 C2         -0.1831    0.5832    2.0850 C.3       1 MOL         0.1522
      3 H1          0.8907    0.5686    2.3018 H         1 MOL         0.1023
      4 C3         -0.8754    1.6440    2.9312 C.3       1 MOL         0.1233
      5 O1         -0.6159    1.3807    4.3060 O.3       1 MOL        -0.3511
      6 N1         -1.2209    2.3189    5.1863 N.pl3     1 MOL         0.3799
      7 O2         -1.8834    3.2300    4.6846 O.2       1 MOL        -0.1655
      8 O3         -0.9882    2.0794    6.3718 O.3       1 MOL        -0.1655
      9 O4         -0.7096   -0.6923    2.4478 O.3       1 MOL        -0.3704
     10 N2          0.1487   -1.7725    2.1101 N.pl3     1 MOL         0.3845
     11 O5          1.2193   -1.5055    1.5594 O.2       1 MOL        -0.1723
     12 O6         -0.3179   -2.8670    2.4285 O.3       1 MOL        -0.1723
     13 H2         -1.4974    0.8254    0.3837 H         1 MOL         0.0681
     14 H3          0.0100    1.7589    0.2680 H         1 MOL         0.0681
     15 H4          0.0060   -0.0016    0.0041 H         1 MOL         0.0681
     16 H5         -0.4936    2.6446    2.7028 H         1 MOL         0.0944
     17 H6         -1.9592    1.6232    2.7801 H         1 MOL         0.0944
@<TRIPOS>BOND
     1    1    2 1
     2    2    3 1
     3    2    4 1
     4    4    5 1
     5    5    6 1
     6    6    7 2
     7    6    8 1
     8    2    9 1
     9    9   10 1
    10   10   11 2
    11   10   12 1
    12    1   13 1
    13    1   14 1
    14    1   15 1
    15    4   16 1
    16    4   17 1
