@<TRIPOS>MOLECULE
2-butoxyethanol
   22    21     0     0     0
SMALL
USER_CHARGES

@<TRIPOS>ATOM
      1 C1          0.3901   -1.0211   -0.0846 C.3       1 MOL        -0.0919
      2 C2         -0.5795   -2.0237    0.5202 C.3       1 MOL        -0.0802
      3 C3         -1.9307   -1.9925   -0.1885 C.3       1 MOL        -0.0803
      4 C4         -2.9047   -2.9950    0.4140 C.3       1 MOL         0.1294
      5 O1         -4.1377   -2.9159   -0.2877 O.3       1 MOL        -0.4176
      6 C5         -5.0930   -3.8319    0.2302 C.3       1 MOL         0.0907
      7 C6         -6.3833   -3.7008   -0.5566 C.3       1 MOL         0.1253
      8 O2         -6.8706   -2.3704   -0.4299 O.3       1 MOL        -0.5936
      9 H1          1.3561   -1.0503    0.4296 H         1 MOL         0.0325
     10 H2          0.5590   -1.2299   -1.1458 H         1 MOL         0.0325
     11 H3         -0.0105   -0.0064    0.0025 H         1 MOL         0.0325
     12 H4         -0.1467   -3.0286    0.4523 H         1 MOL         0.0462
     13 H5         -0.7118   -1.7987    1.5849 H         1 MOL         0.0462
     14 H6         -2.3650   -0.9865   -0.1343 H         1 MOL         0.0489
     15 H7         -1.8040   -2.2066   -1.2572 H         1 MOL         0.0489
     16 H8         -2.5190   -4.0157    0.3261 H         1 MOL         0.0281
     17 H9         -3.0903   -2.7735    1.4699 H         1 MOL         0.0281
     18 H10        -4.6800   -4.8420    0.1438 H         1 MOL         0.0300
     19 H11        -5.2623   -3.5926    1.2845 H         1 MOL         0.0300
     20 H12        -7.1494   -4.3824   -0.1738 H         1 MOL         0.0590
     21 H13        -6.2078   -3.9020   -1.6174 H         1 MOL         0.0590
     22 H14        -7.6927   -2.3244   -0.9436 H         1 MOL         0.3963
@<TRIPOS>BOND
     1    1    2 1
     2    2    3 1
     3    3    4 1
     4    4    5 1
     5    5    6 1
     6    6    7 1
     7    7    8 1
     8    1    9 1
     9    1   10 1
    10    1   11 1
    11    2   12 1
    12    2   13 1
    13    3   14 1
    14    3   15 1
    15    4   16 1
    16    4   17 1
    17    6   18 1
    18    6   19 1
    19    7   20 1
    20    7   21 1
    21    8   22 1
