@<TRIPOS>MOLECULE
(2R,3R,4R,5R)-hexane-1,2,3,4,5,6-hexol
   26    25     0     0     0
SMALL
USER_CHARGES

@<TRIPOS>ATOM
      1 C1          1.0215   -1.6255    5.7470 C.3       1 MOL         0.1169
      2 C2          0.3619   -2.1094    4.4564 C.3       1 MOL         0.1214
      3 H1          0.2471   -3.1988    4.4791 H         1 MOL         0.0616
      4 C3          1.0872   -1.6626    3.1711 C.3       1 MOL         0.1177
      5 H2          1.0983   -0.5667    3.1556 H         1 MOL         0.0564
      6 C4          0.4370   -2.1908    1.8813 C.3       1 MOL         0.1177
      7 H3         -0.5956   -1.8290    1.8149 H         1 MOL         0.0564
      8 C5          1.1734   -1.7656    0.5950 C.3       1 MOL         0.1214
      9 H4          2.2056   -2.1336    0.5967 H         1 MOL         0.0616
     10 C6          0.4731   -2.1837   -0.6960 C.3       1 MOL         0.1169
     11 O1          1.2492   -1.7343   -1.8039 O.3       1 MOL        -0.6072
     12 O2          1.2567   -0.3348    0.5781 O.3       1 MOL        -0.6007
     13 O3          0.3788   -3.6155    1.9445 O.3       1 MOL        -0.6039
     14 O4          2.4468   -2.0947    3.2121 O.3       1 MOL        -0.6039
     15 O5         -0.9643   -1.5662    4.4352 O.3       1 MOL        -0.6007
     16 O6          0.4990   -2.3533    6.8559 O.3       1 MOL        -0.6072
     17 H5          0.8093   -0.5677    5.9311 H         1 MOL         0.0475
     18 H6          2.1047   -1.7713    5.7381 H         1 MOL         0.0475
     19 H7         -0.5187   -1.7336   -0.7834 H         1 MOL         0.0475
     20 H8          0.3894   -3.2727   -0.7715 H         1 MOL         0.0475
     21 H9          0.7777   -2.0154   -2.6033 H         1 MOL         0.4081
     22 H10         1.7219   -0.1030   -0.2379 H         1 MOL         0.4114
     23 H11         1.2938   -3.9238    2.0284 H         1 MOL         0.4233
     24 H12         2.4254   -3.0614    3.2785 H         1 MOL         0.4233
     25 H13        -1.4072   -1.9094    5.2240 H         1 MOL         0.4114
     26 H14         0.9462   -2.0114    7.6455 H         1 MOL         0.4081
@<TRIPOS>BOND
     1    1    2 1
     2    2    3 1
     3    2    4 1
     4    4    5 1
     5    4    6 1
     6    6    7 1
     7    6    8 1
     8    8    9 1
     9    8   10 1
    10   10   11 1
    11    8   12 1
    12    6   13 1
    13    4   14 1
    14    2   15 1
    15    1   16 1
    16    1   17 1
    17    1   18 1
    18   10   19 1
    19   10   20 1
    20   11   21 1
    21   12   22 1
    22   13   23 1
    23   14   24 1
    24   15   25 1
    25   16   26 1
