@<TRIPOS>MOLECULE
ethyl propanoate
   17    16     0     0     0
SMALL
USER_CHARGES

@<TRIPOS>ATOM
      1 C1         -0.8712    0.5470    0.3733 C.3       1 MOL        -0.0929
      2 C2         -0.8823    0.5514    1.8920 C.3       1 MOL        -0.1327
      3 C3         -2.0715    1.2977    2.4497 C.2       1 MOL         0.6360
      4 O1         -2.9385    1.8436    1.7813 O.2       1 MOL        -0.5330
      5 O2         -2.0159    1.2612    3.8143 O.3       1 MOL        -0.4505
      6 C4         -3.0831    1.9316    4.4926 C.3       1 MOL         0.1377
      7 C5         -2.8686    1.7951    5.9811 C.3       1 MOL        -0.1328
      8 H1         -0.0030    0.0021   -0.0122 H         1 MOL         0.0471
      9 H2         -1.7756    0.0673   -0.0132 H         1 MOL         0.0471
     10 H3         -0.8286    1.5671   -0.0225 H         1 MOL         0.0471
     11 H4          0.0313    1.0306    2.2597 H         1 MOL         0.0766
     12 H5         -0.9183   -0.4806    2.2568 H         1 MOL         0.0766
     13 H6         -3.0741    2.9793    4.1906 H         1 MOL         0.0638
     14 H7         -4.0232    1.4702    4.1888 H         1 MOL         0.0638
     15 H8         -3.6690    2.2978    6.5309 H         1 MOL         0.0487
     16 H9         -2.8447    0.7410    6.2765 H         1 MOL         0.0487
     17 H10        -1.9086    2.2305    6.2780 H         1 MOL         0.0487
@<TRIPOS>BOND
     1    1    2 1
     2    2    3 1
     3    3    4 2
     4    3    5 1
     5    5    6 1
     6    6    7 1
     7    1    8 1
     8    1    9 1
     9    1   10 1
    10    2   11 1
    11    2   12 1
    12    6   13 1
    13    6   14 1
    14    7   15 1
    15    7   16 1
    16    7   17 1
