@<TRIPOS>MOLECULE
1-methyl-3-nitro-benzene
   17    17     0     0     0
SMALL
USER_CHARGES

@<TRIPOS>ATOM
      1 C1          1.9305   -1.0135   -1.6027 C.3       1 MOL        -0.0591
      2 C2          1.8851   -1.0363   -0.1124 C.ar      1 MOL        -0.0819
      3 C3          2.9210   -1.6309    0.6081 C.ar      1 MOL        -0.0917
      4 C4          2.8783   -1.6520    2.0022 C.ar      1 MOL        -0.1349
      5 C5          1.7997   -1.0786    2.6757 C.ar      1 MOL        -0.0729
      6 C6          0.7638   -0.4841    1.9551 C.ar      1 MOL        -0.1709
      7 C7          0.8066   -0.4630    0.5610 C.ar      1 MOL        -0.0730
      8 N1         -0.3329    0.1012    2.6415 N.pl3     1 MOL         0.3125
      9 O1         -1.2544    0.6311    1.9749 O.2       1 MOL        -0.2092
     10 O2         -0.3502    0.0727    3.8958 O.3       1 MOL        -0.2092
     11 H1          2.4383   -0.1078   -1.9480 H         1 MOL         0.0526
     12 H2          2.4631   -1.8879   -1.9911 H         1 MOL         0.0526
     13 H3          0.9202   -1.0359   -2.0249 H         1 MOL         0.0526
     14 H4          3.7655   -2.0799    0.0920 H         1 MOL         0.1438
     15 H5          3.6845   -2.1157    2.5631 H         1 MOL         0.1476
     16 H6          1.7792   -1.1022    3.7625 H         1 MOL         0.1703
     17 H7          0.0015    0.0004   -0.0050 H         1 MOL         0.1708
@<TRIPOS>BOND
     1    1    2 1
     2    2    7 ar
     3    2    3 ar
     4    3    4 ar
     5    4    5 ar
     6    5    6 ar
     7    6    7 ar
     8    6    8 1
     9    8    9 2
    10    8   10 1
    11    1   11 1
    12    1   12 1
    13    1   13 1
    14    3   14 1
    15    4   15 1
    16    5   16 1
    17    7   17 1
