@<TRIPOS>MOLECULE
1-bromo-2-methyl-propane
   14    13     0     0     0
SMALL
USER_CHARGES

@<TRIPOS>ATOM
      1 C1          0.5614   -0.7587    1.0935 C.3       1 MOL        -0.0950
      2 C2         -0.3604   -0.1374    0.0403 C.3       1 MOL        -0.0645
      3 C3         -0.5284    1.3564    0.3292 C.3       1 MOL        -0.0950
      4 C4          0.1782   -0.3277   -1.3773 C.3       1 MOL        -0.0071
      5 Br1         0.3632   -2.2180   -1.8166 Br        1 MOL        -0.1789
      6 H1          0.7027   -1.8304    0.9149 H         1 MOL         0.0397
      7 H2          1.5476   -0.2819    1.0730 H         1 MOL         0.0397
      8 H3          0.1605   -0.6339    2.1039 H         1 MOL         0.0397
      9 H4         -1.3481   -0.6077    0.1277 H         1 MOL         0.0598
     10 H5         -1.1840    1.8329   -0.4077 H         1 MOL         0.0397
     11 H6          0.4388    1.8693    0.3044 H         1 MOL         0.0397
     12 H7         -0.9628    1.5143    1.3221 H         1 MOL         0.0397
     13 H8          1.1624    0.1293   -1.5168 H         1 MOL         0.0713
     14 H9         -0.5103    0.0727   -2.1276 H         1 MOL         0.0713
@<TRIPOS>BOND
     1    1    2 1
     2    2    3 1
     3    2    4 1
     4    4    5 1
     5    1    6 1
     6    1    7 1
     7    1    8 1
     8    2    9 1
     9    3   10 1
    10    3   11 1
    11    3   12 1
    12    4   13 1
    13    4   14 1
