@<TRIPOS>MOLECULE
1,3,5-trichloro-2-(2,6-dichlorophenyl)benzene
   22    23     0     0     0
SMALL
USER_CHARGES

@<TRIPOS>ATOM
      1 C1          1.8851   -1.0363   -0.1124 C.ar      1 MOL        -0.1045
      2 C2          2.9210   -1.6309    0.6081 C.ar      1 MOL        -0.1287
      3 C3          2.8783   -1.6520    2.0022 C.ar      1 MOL         0.0496
      4 C4          1.7997   -1.0786    2.6757 C.ar      1 MOL        -0.0385
      5 C5          0.7638   -0.4841    1.9551 C.ar      1 MOL         0.0496
      6 C6          0.8066   -0.4630    0.5610 C.ar      1 MOL        -0.1287
      7 Cl1        -0.6017    0.2450    2.7295 Cl        1 MOL        -0.0712
      8 C7          1.7551   -1.1008    4.1301 C.ar      1 MOL        -0.0346
      9 C8          1.1501   -2.1688    4.7928 C.ar      1 MOL         0.0557
     10 C9          1.1071   -2.1902    6.1868 C.ar      1 MOL        -0.1266
     11 C10         1.6689   -1.1437    6.9182 C.ar      1 MOL         0.0383
     12 C11         2.2738   -0.0757    6.2554 C.ar      1 MOL        -0.1266
     13 C12         2.3168   -0.0543    4.8614 C.ar      1 MOL         0.0557
     14 Cl2         3.0818    1.2988    4.0994 Cl        1 MOL        -0.0632
     15 Cl3         1.6177   -1.1716    8.6383 Cl        1 MOL        -0.0751
     16 Cl4         0.4353   -3.4976    3.9445 Cl        1 MOL        -0.0632
     17 Cl5         4.1947   -2.4049    2.8365 Cl        1 MOL        -0.0712
     18 H1          1.9183   -1.0198   -1.1979 H         1 MOL         0.1438
     19 H2          3.7537   -2.0729    0.0668 H         1 MOL         0.1529
     20 H3          0.0079   -0.0042   -0.0166 H         1 MOL         0.1529
     21 H4          0.6369   -3.0224    6.7064 H         1 MOL         0.1668
     22 H5          2.7120    0.7385    6.8285 H         1 MOL         0.1668
@<TRIPOS>BOND
     1    1    6 ar
     2    1    2 ar
     3    2    3 ar
     4    3    4 ar
     5    4    5 ar
     6    5    6 ar
     7    5    7 1
     8    4    8 1
     9    8   13 ar
    10    8    9 ar
    11    9   10 ar
    12   10   11 ar
    13   11   12 ar
    14   12   13 ar
    15   13   14 1
    16   11   15 1
    17    9   16 1
    18    3   17 1
    19    1   18 1
    20    2   19 1
    21    6   20 1
    22   10   21 1
    23   12   22 1
