@<TRIPOS>MOLECULE
2,5-dimethylphenol
   19    19     0     0     0
SMALL
USER_CHARGES

@<TRIPOS>ATOM
      1 C1          1.9317   -1.0134   -1.6029 C.3       1 MOL        -0.0563
      2 C2          1.8851   -1.0363   -0.1124 C.ar      1 MOL        -0.0434
      3 C3          2.9210   -1.6309    0.6081 C.ar      1 MOL        -0.1610
      4 C4          2.8783   -1.6520    2.0022 C.ar      1 MOL        -0.0983
      5 C5          1.7997   -1.0786    2.6757 C.ar      1 MOL        -0.1035
      6 C6          0.7638   -0.4841    1.9551 C.ar      1 MOL         0.1254
      7 C7          0.8066   -0.4630    0.5610 C.ar      1 MOL        -0.2121
      8 O1         -0.2967    0.0811    2.5972 O.3       1 MOL        -0.4995
      9 C8          1.7703   -1.1113    4.1680 C.3       1 MOL        -0.0437
     10 H1          2.4400   -0.1078   -1.9478 H         1 MOL         0.0451
     11 H2          2.4643   -1.8879   -1.9909 H         1 MOL         0.0451
     12 H3          0.9217   -1.0355   -2.0259 H         1 MOL         0.0451
     13 H4          3.7653   -2.0792    0.0913 H         1 MOL         0.1331
     14 H5          3.6905   -2.1172    2.5546 H         1 MOL         0.1335
     15 H6         -0.0023    0.0005    0.0013 H         1 MOL         0.1324
     16 H7         -0.9224    0.4468    1.9525 H         1 MOL         0.4176
     17 H8          2.2595   -0.2198    4.5777 H         1 MOL         0.0469
     18 H9          0.7402   -1.1482    4.5440 H         1 MOL         0.0469
     19 H10         2.2832   -2.0005    4.5557 H         1 MOL         0.0469
@<TRIPOS>BOND
     1    1    2 1
     2    2    7 ar
     3    2    3 ar
     4    3    4 ar
     5    4    5 ar
     6    5    6 ar
     7    6    7 ar
     8    6    8 1
     9    5    9 1
    10    1   10 1
    11    1   11 1
    12    1   12 1
    13    3   13 1
    14    4   14 1
    15    7   15 1
    16    8   16 1
    17    9   17 1
    18    9   18 1
    19    9   19 1
