@<TRIPOS>MOLECULE
2,2,2-trifluoroethanol
    9     8     0     0     0
SMALL
USER_CHARGES

@<TRIPOS>ATOM
      1 C1          0.7722   -0.3315    0.7004 C.3       1 MOL         0.0947
      2 C2          1.3425    0.8421    1.4537 C.3       1 MOL         0.6321
      3 F1          1.8881    1.7357    0.5998 F         1 MOL        -0.2322
      4 F2          2.3083    0.4507    2.3117 F         1 MOL        -0.2322
      5 F3          0.3869    1.4808    2.1613 F         1 MOL        -0.2322
      6 O1          1.8121   -0.9630   -0.0310 O.3       1 MOL        -0.5771
      7 H1          0.3377   -1.0582    1.3932 H         1 MOL         0.0631
      8 H2          0.0000    0.0000    0.0000 H         1 MOL         0.0631
      9 H3          1.4108   -1.7115   -0.5024 H         1 MOL         0.4207
@<TRIPOS>BOND
     1    1    2 1
     2    2    3 1
     3    2    4 1
     4    2    5 1
     5    1    6 1
     6    1    7 1
     7    1    8 1
     8    6    9 1
