@<TRIPOS>MOLECULE
(6S)-6-isopropyl-3-methyl-cyclohex-2-en-1-one
   27    27     0     0     0
SMALL
USER_CHARGES

@<TRIPOS>ATOM
      1 C1          0.4168   -2.4713    1.7862 C.3       1 MOL        -0.0757
      2 C2          0.1348   -1.2851    0.9101 C.2       1 MOL        -0.0382
      3 C3          1.1305   -0.5499    0.3923 C.2       1 MOL        -0.2593
      4 C4          0.8423    0.5828   -0.5258 C.2       1 MOL         0.5677
      5 O1          1.7747    1.2728   -0.9347 O.2       1 MOL        -0.5377
      6 C5         -0.5968    0.7849   -0.9840 C.3       1 MOL        -0.1540
      7 H1         -0.7641    0.1055   -1.8296 H         1 MOL         0.0728
      8 C6         -1.5537    0.4359    0.1550 C.3       1 MOL        -0.0731
      9 C7         -1.3205   -0.9869    0.6592 C.3       1 MOL        -0.0630
     10 C8         -0.8281    2.2169   -1.4583 C.3       1 MOL        -0.0628
     11 C9         -2.0650    2.2946   -2.3510 C.3       1 MOL        -0.0903
     12 C10        -0.9666    3.1623   -0.2667 C.3       1 MOL        -0.0903
     13 H2          0.5064   -3.3772    1.1808 H         1 MOL         0.0511
     14 H3         -0.3916   -2.6102    2.5094 H         1 MOL         0.0511
     15 H4          1.3495   -2.3229    2.3374 H         1 MOL         0.0511
     16 H5          2.1730   -0.7675    0.5968 H         1 MOL         0.1478
     17 H6         -1.4135    1.1378    0.9883 H         1 MOL         0.0525
     18 H7         -2.5945    0.5377   -0.1749 H         1 MOL         0.0525
     19 H8         -1.8939   -1.1209    1.5842 H         1 MOL         0.0570
     20 H9         -1.7087   -1.7093   -0.0694 H         1 MOL         0.0570
     21 H10         0.0423    2.5309   -2.0477 H         1 MOL         0.0741
     22 H11        -2.2418    3.3185   -2.6983 H         1 MOL         0.0349
     23 H12        -2.9566    1.9623   -1.8091 H         1 MOL         0.0349
     24 H13        -1.9501    1.6537   -3.2315 H         1 MOL         0.0349
     25 H14        -1.1331    4.1943   -0.5942 H         1 MOL         0.0349
     26 H15        -0.0625    3.1447    0.3511 H         1 MOL         0.0349
     27 H16        -1.8102    2.8679    0.3665 H         1 MOL         0.0349
@<TRIPOS>BOND
     1    1    2 1
     2    2    9 1
     3    2    3 2
     4    3    4 1
     5    4    5 2
     6    4    6 1
     7    6    7 1
     8    6    8 1
     9    8    9 1
    10    6   10 1
    11   10   11 1
    12   10   12 1
    13    1   13 1
    14    1   14 1
    15    1   15 1
    16    3   16 1
    17    8   17 1
    18    8   18 1
    19    9   19 1
    20    9   20 1
    21   10   21 1
    22   11   22 1
    23   11   23 1
    24   11   24 1
    25   12   25 1
    26   12   26 1
    27   12   27 1
