@<TRIPOS>MOLECULE
1-bromoheptane
   23    22     0     0     0
SMALL
USER_CHARGES

@<TRIPOS>ATOM
      1 C1         -3.6402    0.4974    0.5281 C.3       1 MOL        -0.0924
      2 C2         -2.1628    0.6283    0.8620 C.3       1 MOL        -0.0799
      3 C3         -1.2838    0.0886   -0.2661 C.3       1 MOL        -0.0789
      4 C4          0.2024    0.2222    0.0741 C.3       1 MOL        -0.0773
      5 C5          1.0803   -0.3188   -1.0567 C.3       1 MOL        -0.0799
      6 C6          2.5795   -0.2084   -0.7659 C.3       1 MOL        -0.0810
      7 C7          3.4451   -0.7473   -1.8928 C.3       1 MOL        -0.0091
      8 Br1         5.3270   -0.5591   -1.4213 Br        1 MOL        -0.1785
      9 H1         -4.2501    0.8892    1.3480 H         1 MOL         0.0334
     10 H2         -3.8887    1.0588   -0.3782 H         1 MOL         0.0334
     11 H3         -3.9156   -0.5501    0.3701 H         1 MOL         0.0334
     12 H4         -1.9542    0.0833    1.7901 H         1 MOL         0.0390
     13 H5         -1.9275    1.6832    1.0451 H         1 MOL         0.0390
     14 H6         -1.4997    0.6346   -1.1925 H         1 MOL         0.0392
     15 H7         -1.5255   -0.9657   -0.4482 H         1 MOL         0.0392
     16 H8          0.4076   -0.3225    1.0024 H         1 MOL         0.0413
     17 H9          0.4439    1.2765    0.2547 H         1 MOL         0.0413
     18 H10         0.8677    0.2424   -1.9752 H         1 MOL         0.0413
     19 H11         0.8213   -1.3652   -1.2590 H         1 MOL         0.0413
     20 H12         2.8163    0.8498   -0.5950 H         1 MOL         0.0559
     21 H13         2.8109   -0.7308    0.1709 H         1 MOL         0.0559
     22 H14         3.2846   -1.8132   -2.0713 H         1 MOL         0.0718
     23 H15         3.3007   -0.1916   -2.8232 H         1 MOL         0.0718
@<TRIPOS>BOND
     1    1    2 1
     2    2    3 1
     3    3    4 1
     4    4    5 1
     5    5    6 1
     6    6    7 1
     7    7    8 1
     8    1    9 1
     9    1   10 1
    10    1   11 1
    11    2   12 1
    12    2   13 1
    13    3   14 1
    14    3   15 1
    15    4   16 1
    16    4   17 1
    17    5   18 1
    18    5   19 1
    19    6   20 1
    20    6   21 1
    21    7   22 1
    22    7   23 1
