@<TRIPOS>MOLECULE
p-xylene
   18    18     0     0     0
SMALL
USER_CHARGES

@<TRIPOS>ATOM
      1 C1          1.9305   -1.0133   -1.6029 C.3       1 MOL        -0.0529
      2 C2          1.8851   -1.0363   -0.1124 C.ar      1 MOL        -0.0817
      3 C3          2.9210   -1.6309    0.6081 C.ar      1 MOL        -0.1273
      4 C4          2.8783   -1.6520    2.0022 C.ar      1 MOL        -0.1273
      5 C5          1.7997   -1.0786    2.6757 C.ar      1 MOL        -0.0817
      6 C6          0.7638   -0.4841    1.9551 C.ar      1 MOL        -0.1273
      7 C7          0.8066   -0.4630    0.5610 C.ar      1 MOL        -0.1273
      8 C8          1.7529   -1.1036    4.1660 C.3       1 MOL        -0.0528
      9 H1          2.4383   -0.1076   -1.9481 H         1 MOL         0.0432
     10 H2          2.4630   -1.8877   -1.9914 H         1 MOL         0.0432
     11 H3          0.9202   -1.0356   -2.0251 H         1 MOL         0.0432
     12 H4          3.7650   -2.0800    0.0916 H         1 MOL         0.1298
     13 H5          3.6891   -2.1183    2.5555 H         1 MOL         0.1298
     14 H6         -0.0809   -0.0359    2.4717 H         1 MOL         0.1298
     15 H7         -0.0052    0.0022    0.0080 H         1 MOL         0.1298
     16 H8          2.2382   -0.2106    4.5785 H         1 MOL         0.0432
     17 H9          0.7185   -1.1377    4.5318 H         1 MOL         0.0432
     18 H10         2.2604   -1.9914    4.5658 H         1 MOL         0.0432
@<TRIPOS>BOND
     1    1    2 1
     2    2    7 ar
     3    2    3 ar
     4    3    4 ar
     5    4    5 ar
     6    5    6 ar
     7    6    7 ar
     8    5    8 1
     9    1    9 1
    10    1   10 1
    11    1   11 1
    12    3   12 1
    13    4   13 1
    14    6   14 1
    15    7   15 1
    16    8   16 1
    17    8   17 1
    18    8   18 1
