@<TRIPOS>MOLECULE
hydrogen sulfide
    3     2     0     0     0
SMALL
USER_CHARGES

@<TRIPOS>ATOM
      1 S1         -0.4574   -0.3303    0.2403 S.3       1 MOL        -0.4405
      2 H1          0.0280    0.8930    0.4980 H         1 MOL         0.2203
      3 H2          0.4294   -0.5627   -0.7383 H         1 MOL         0.2203
@<TRIPOS>BOND
     1    1    2 1
     2    1    3 1
