@<TRIPOS>MOLECULE
cyclopentane
   15    15     0     0     0
SMALL
USER_CHARGES

@<TRIPOS>ATOM
      1 C1         -0.2457    0.8538   -0.9315 C.3       1 MOL        -0.0807
      2 C2          1.1261    0.4809   -0.3704 C.3       1 MOL        -0.0807
      3 C3          0.8452   -0.3299    0.8861 C.3       1 MOL        -0.0807
      4 C4         -0.4578   -1.0394    0.5622 C.3       1 MOL        -0.0807
      5 C5         -1.2679    0.0346   -0.1465 C.3       1 MOL        -0.0807
      6 H1         -0.2939    0.6216   -2.0010 H         1 MOL         0.0403
      7 H2         -0.4438    1.9254   -0.8209 H         1 MOL         0.0403
      8 H3          1.6661   -0.1349   -1.0998 H         1 MOL         0.0403
      9 H4          1.7403    1.3619   -0.1613 H         1 MOL         0.0403
     10 H5          1.6549   -1.0272    1.1195 H         1 MOL         0.0403
     11 H6          0.7094    0.3391    1.7440 H         1 MOL         0.0403
     12 H7         -0.2738   -1.8833   -0.1131 H         1 MOL         0.0403
     13 H8         -0.9615   -1.4188    1.4556 H         1 MOL         0.0403
     14 H9         -2.0428   -0.3896   -0.7920 H         1 MOL         0.0403
     15 H10        -1.7643    0.6757    0.5918 H         1 MOL         0.0403
@<TRIPOS>BOND
     1    1    5 1
     2    1    2 1
     3    2    3 1
     4    3    4 1
     5    4    5 1
     6    1    6 1
     7    1    7 1
     8    2    8 1
     9    2    9 1
    10    3   10 1
    11    3   11 1
    12    4   12 1
    13    4   13 1
    14    5   14 1
    15    5   15 1
