@<TRIPOS>MOLECULE
pyridine-4-carbonitrile
   12    12     0     0     0
SMALL
USER_CHARGES

@<TRIPOS>ATOM
      1 C1          0.2265   -0.4197    0.9733 C.ar      1 MOL        -0.2107
      2 C2         -0.6317   -1.3224    1.5803 C.ar      1 MOL         0.3933
      3 N1         -0.4092   -1.8816    2.7908 N.ar      1 MOL        -0.6467
      4 C3          0.7299   -1.5161    3.4206 C.ar      1 MOL         0.3933
      5 C4          1.6520   -0.6227    2.8997 C.ar      1 MOL        -0.2107
      6 C5          1.3879   -0.0684    1.6522 C.ar      1 MOL         0.0240
      7 C6          2.3060    0.8582    1.0694 C.1       1 MOL         0.2251
      8 N2          3.0528    1.6120    0.5954 N.1       1 MOL        -0.3439
      9 H1         -0.0133   -0.0084   -0.0019 H         1 MOL         0.1569
     10 H2         -1.5511   -1.6289    1.0925 H         1 MOL         0.0313
     11 H3          0.8893   -1.9760    4.3905 H         1 MOL         0.0313
     12 H4          2.5477   -0.3729    3.4592 H         1 MOL         0.1569
@<TRIPOS>BOND
     1    1    6 ar
     2    1    2 ar
     3    2    3 ar
     4    3    4 ar
     5    4    5 ar
     6    5    6 ar
     7    6    7 1
     8    7    8 3
     9    1    9 1
    10    2   10 1
    11    4   11 1
    12    5   12 1
