@<TRIPOS>MOLECULE
1,3,5-trichloro-2-phenyl-benzene
   22    23     0     0     0
SMALL
USER_CHARGES

@<TRIPOS>ATOM
      1 C1          1.8851   -1.0363   -0.1124 C.ar      1 MOL        -0.1195
      2 C2          2.9210   -1.6309    0.6081 C.ar      1 MOL        -0.1319
      3 C3          2.8783   -1.6520    2.0022 C.ar      1 MOL        -0.0995
      4 C4          1.7997   -1.0786    2.6757 C.ar      1 MOL        -0.0553
      5 C5          0.7638   -0.4841    1.9551 C.ar      1 MOL        -0.0995
      6 C6          0.8066   -0.4630    0.5610 C.ar      1 MOL        -0.1319
      7 C7          1.7549   -1.1005    4.1216 C.ar      1 MOL        -0.0260
      8 C8          1.1497   -2.1685    4.7842 C.ar      1 MOL         0.0411
      9 C9          1.1063   -2.1899    6.1783 C.ar      1 MOL        -0.1260
     10 C10         1.6679   -1.1433    6.9097 C.ar      1 MOL         0.0310
     11 C11         2.2731   -0.0754    6.2470 C.ar      1 MOL        -0.1260
     12 C12         2.3165   -0.0540    4.8530 C.ar      1 MOL         0.0411
     13 Cl1         3.0818    1.2989    4.0911 Cl        1 MOL        -0.0658
     14 Cl2         1.6163   -1.1710    8.6298 Cl        1 MOL        -0.0767
     15 Cl3         0.4351   -3.4973    3.9358 Cl        1 MOL        -0.0658
     16 H1          1.9174   -1.0212   -1.1979 H         1 MOL         0.1319
     17 H2          3.7605   -2.0787    0.0844 H         1 MOL         0.1345
     18 H3          3.6927   -2.1196    2.5504 H         1 MOL         0.1391
     19 H4         -0.0840   -0.0332    2.4655 H         1 MOL         0.1391
     20 H5         -0.0009   -0.0015    0.0001 H         1 MOL         0.1345
     21 H6          0.6359   -3.0220    6.6977 H         1 MOL         0.1658
     22 H7          2.7112    0.7389    6.8202 H         1 MOL         0.1658
@<TRIPOS>BOND
     1    1    6 ar
     2    1    2 ar
     3    2    3 ar
     4    3    4 ar
     5    4    5 ar
     6    5    6 ar
     7    4    7 1
     8    7   12 ar
     9    7    8 ar
    10    8    9 ar
    11    9   10 ar
    12   10   11 ar
    13   11   12 ar
    14   12   13 1
    15   10   14 1
    16    8   15 1
    17    1   16 1
    18    2   17 1
    19    3   18 1
    20    5   19 1
    21    6   20 1
    22    9   21 1
    23   11   22 1
