@<TRIPOS>MOLECULE
1,2-dichlorobenzene
   12    12     0     0     0
SMALL
USER_CHARGES

@<TRIPOS>ATOM
      1 C1          1.8851   -1.0363   -0.1124 C.ar      1 MOL        -0.1214
      2 C2          2.9210   -1.6309    0.6081 C.ar      1 MOL        -0.1213
      3 C3          2.8783   -1.6520    2.0022 C.ar      1 MOL        -0.1177
      4 C4          1.7997   -1.0786    2.6757 C.ar      1 MOL         0.0175
      5 C5          0.7638   -0.4841    1.9551 C.ar      1 MOL         0.0175
      6 C6          0.8066   -0.4630    0.5610 C.ar      1 MOL        -0.1177
      7 Cl1        -0.5990    0.2428    2.7315 Cl        1 MOL        -0.0703
      8 Cl2         1.8044   -1.1366    4.4034 Cl        1 MOL        -0.0703
      9 H1          1.9186   -1.0200   -1.1979 H         1 MOL         0.1410
     10 H2          3.7607   -2.0773    0.0835 H         1 MOL         0.1410
     11 H3          3.6942   -2.1196    2.5476 H         1 MOL         0.1509
     12 H4          0.0080   -0.0041   -0.0166 H         1 MOL         0.1509
@<TRIPOS>BOND
     1    1    6 ar
     2    1    2 ar
     3    2    3 ar
     4    3    4 ar
     5    4    5 ar
     6    5    6 ar
     7    5    7 1
     8    4    8 1
     9    1    9 1
    10    2   10 1
    11    3   11 1
    12    6   12 1
