@<TRIPOS>MOLECULE
(E)-but-2-enal
   11    10     0     0     0
SMALL
USER_CHARGES

@<TRIPOS>ATOM
      1 C1         -1.8802    0.8865   -0.7247 C.3       1 MOL        -0.0830
      2 C2         -0.9450   -0.2508   -0.4750 C.2       1 MOL        -0.0905
      3 C3         -1.2229   -1.5179   -0.8034 C.2       1 MOL        -0.2768
      4 C4         -0.2303   -2.5702   -0.5137 C.2       1 MOL         0.5581
      5 O1         -0.4322   -3.7460   -0.7926 O.2       1 MOL        -0.5260
      6 H1         -2.5388    1.0237    0.1385 H         1 MOL         0.0528
      7 H2         -2.5006    0.6729   -1.6004 H         1 MOL         0.0528
      8 H3         -1.3507    1.8280   -0.9031 H         1 MOL         0.0528
      9 H4          0.0000    0.0000    0.0000 H         1 MOL         0.1211
     10 H5         -2.1529   -1.8078   -1.2777 H         1 MOL         0.1497
     11 H6          0.7048   -2.2411   -0.0304 H         1 MOL        -0.0110
@<TRIPOS>BOND
     1    1    2 1
     2    2    3 2
     3    3    4 1
     4    4    5 2
     5    1    6 1
     6    1    7 1
     7    1    8 1
     8    2    9 1
     9    3   10 1
    10    4   11 1
