@<TRIPOS>MOLECULE
benzaldehyde
   14    14     0     0     0
SMALL
USER_CHARGES

@<TRIPOS>ATOM
      1 C1          1.8851   -1.0363   -0.1124 C.ar      1 MOL        -0.0986
      2 C2          2.9210   -1.6309    0.6081 C.ar      1 MOL        -0.1453
      3 C3          2.8783   -1.6520    2.0022 C.ar      1 MOL        -0.0782
      4 C4          1.7997   -1.0786    2.6757 C.ar      1 MOL        -0.1980
      5 C5          0.7638   -0.4841    1.9551 C.ar      1 MOL        -0.0782
      6 C6          0.8066   -0.4630    0.5610 C.ar      1 MOL        -0.1453
      7 C7          1.7551   -1.1006    4.1291 C.2       1 MOL         0.5759
      8 O1          2.6394   -1.6105    4.8228 O.2       1 MOL        -0.5282
      9 H1          1.9184   -1.0198   -1.1978 H         1 MOL         0.1352
     10 H2          3.7607   -2.0775    0.0838 H         1 MOL         0.1374
     11 H3          3.6911   -2.1179    2.5534 H         1 MOL         0.1444
     12 H4         -0.0814   -0.0344    2.4697 H         1 MOL         0.1444
     13 H5          0.0002    0.0000   -0.0002 H         1 MOL         0.1374
     14 H6          0.8753   -0.6315    4.6210 H         1 MOL        -0.0029
@<TRIPOS>BOND
     1    1    6 ar
     2    1    2 ar
     3    2    3 ar
     4    3    4 ar
     5    4    5 ar
     6    5    6 ar
     7    4    7 1
     8    7    8 2
     9    1    9 1
    10    2   10 1
    11    3   11 1
    12    5   12 1
    13    6   13 1
    14    7   14 1
