@<TRIPOS>MOLECULE
(2S)-2-chlorobutane
   14    13     0     0     0
SMALL
USER_CHARGES

@<TRIPOS>ATOM
      1 C1          0.7302    0.2079    1.7967 C.3       1 MOL        -0.0959
      2 C2          0.4931    0.4908    0.3189 C.3       1 MOL        -0.0863
      3 C3         -0.4823   -0.4901   -0.3421 C.3       1 MOL         0.0640
      4 H1         -0.0926   -1.5110   -0.2663 H         1 MOL         0.0691
      5 C4         -0.6972   -0.1459   -1.8112 C.3       1 MOL        -0.1050
      6 Cl1        -2.0686   -0.4793    0.4864 Cl        1 MOL        -0.2117
      7 H2          1.4325    0.9391    2.2097 H         1 MOL         0.0406
      8 H3          1.1566   -0.7867    1.9563 H         1 MOL         0.0406
      9 H4         -0.2034    0.2792    2.3638 H         1 MOL         0.0406
     10 H5          1.4551    0.4868   -0.2082 H         1 MOL         0.0503
     11 H6          0.0913    1.5079    0.2296 H         1 MOL         0.0503
     12 H7         -1.3942   -0.8477   -2.2819 H         1 MOL         0.0478
     13 H8         -1.1206    0.8590   -1.9141 H         1 MOL         0.0478
     14 H9          0.2433   -0.1732   -2.3725 H         1 MOL         0.0478
@<TRIPOS>BOND
     1    1    2 1
     2    2    3 1
     3    3    4 1
     4    3    5 1
     5    3    6 1
     6    1    7 1
     7    1    8 1
     8    1    9 1
     9    2   10 1
    10    2   11 1
    11    5   12 1
    12    5   13 1
    13    5   14 1
