@<TRIPOS>MOLECULE
2-benzhydryloxy-N,N-dimethyl-ethanamine
   40    41     0     0     0
SMALL
USER_CHARGES

@<TRIPOS>ATOM
      1 C1         -3.0309   -4.3987    0.7979 C.3       1 MOL         0.1381
      2 N1         -2.9518   -3.6838    2.0713 N.3       1 MOL        -0.7044
      3 C2         -4.0460   -2.7203    2.1854 C.3       1 MOL         0.1381
      4 C3         -1.6607   -3.0087    2.1990 C.3       1 MOL         0.1474
      5 C4         -0.5878   -4.0001    2.6333 C.3       1 MOL         0.1240
      6 O1          0.6560   -3.3210    2.7503 O.3       1 MOL        -0.4185
      7 C5          1.6948   -4.2023    3.1542 C.3       1 MOL         0.2345
      8 C6          2.2024   -5.0019    1.9681 C.ar      1 MOL        -0.0948
      9 C7          2.7128   -6.2859    2.1598 C.ar      1 MOL        -0.1121
     10 C8          3.1794   -7.0208    1.0700 C.ar      1 MOL        -0.1327
     11 C9          3.1357   -6.4718   -0.2116 C.ar      1 MOL        -0.1261
     12 C10         2.6253   -5.1879   -0.4033 C.ar      1 MOL        -0.1327
     13 C11         2.1587   -4.4529    0.6866 C.ar      1 MOL        -0.1121
     14 C12         2.8107   -3.4740    3.8856 C.ar      1 MOL        -0.0948
     15 C13         3.5526   -4.1371    4.8631 C.ar      1 MOL        -0.1121
     16 C14         4.5765   -3.4689    5.5345 C.ar      1 MOL        -0.1327
     17 C15         4.8584   -2.1375    5.2284 C.ar      1 MOL        -0.1261
     18 C16         4.1164   -1.4744    4.2509 C.ar      1 MOL        -0.1327
     19 C17         3.0925   -2.1427    3.5795 C.ar      1 MOL        -0.1121
     20 H1         -2.2108   -5.1170    0.7187 H         1 MOL         0.0344
     21 H2         -2.9636   -3.6944   -0.0357 H         1 MOL         0.0344
     22 H3         -3.9792   -4.9379    0.7255 H         1 MOL         0.0344
     23 H4         -3.9624   -2.2061    3.1369 H         1 MOL         0.0344
     24 H5         -4.9906   -3.2512    2.1317 H         1 MOL         0.0344
     25 H6         -3.9750   -2.0077    1.3705 H         1 MOL         0.0344
     26 H7         -1.7505   -2.1931    2.9323 H         1 MOL         0.0463
     27 H8         -1.3867   -2.5705    1.2279 H         1 MOL         0.0463
     28 H9         -0.4709   -4.7934    1.8886 H         1 MOL         0.0399
     29 H10        -0.8349   -4.4513    3.5998 H         1 MOL         0.0399
     30 H11         1.2162   -4.8983    3.8589 H         1 MOL         0.0504
     31 H12         2.7510   -6.7211    3.1549 H         1 MOL         0.1367
     32 H13         3.5766   -8.0206    1.2193 H         1 MOL         0.1311
     33 H14         3.4988   -7.0439   -1.0604 H         1 MOL         0.1309
     34 H15         2.5917   -4.7602   -1.4010 H         1 MOL         0.1311
     35 H16         1.7624   -3.4536    0.5272 H         1 MOL         0.1367
     36 H17         3.3394   -5.1742    5.1081 H         1 MOL         0.1367
     37 H18         5.1543   -3.9853    6.2954 H         1 MOL         0.1311
     38 H19         5.6557   -1.6170    5.7510 H         1 MOL         0.1309
     39 H20         4.3356   -0.4377    4.0130 H         1 MOL         0.1311
     40 H21         2.5202   -1.6177    2.8192 H         1 MOL         0.1367
@<TRIPOS>BOND
     1    1    2 1
     2    2    3 1
     3    2    4 1
     4    4    5 1
     5    5    6 1
     6    6    7 1
     7    7    8 1
     8    8   13 ar
     9    8    9 ar
    10    9   10 ar
    11   10   11 ar
    12   11   12 ar
    13   12   13 ar
    14    7   14 1
    15   14   19 ar
    16   14   15 ar
    17   15   16 ar
    18   16   17 ar
    19   17   18 ar
    20   18   19 ar
    21    1   20 1
    22    1   21 1
    23    1   22 1
    24    3   23 1
    25    3   24 1
    26    3   25 1
    27    4   26 1
    28    4   27 1
    29    5   28 1
    30    5   29 1
    31    7   30 1
    32    9   31 1
    33   10   32 1
    34   11   33 1
    35   12   34 1
    36   13   35 1
    37   15   36 1
    38   16   37 1
    39   17   38 1
    40   18   39 1
    41   19   40 1
