@<TRIPOS>MOLECULE
1,4-dichloro-2-phenyl-benzene
   22    23     0     0     0
SMALL
USER_CHARGES

@<TRIPOS>ATOM
      1 C1          1.8851   -1.0363   -0.1124 C.ar      1 MOL        -0.1227
      2 C2          2.9210   -1.6309    0.6081 C.ar      1 MOL        -0.1313
      3 C3          2.8783   -1.6520    2.0022 C.ar      1 MOL        -0.1060
      4 C4          1.7997   -1.0786    2.6757 C.ar      1 MOL        -0.0535
      5 C5          0.7638   -0.4841    1.9551 C.ar      1 MOL        -0.1060
      6 C6          0.8066   -0.4630    0.5610 C.ar      1 MOL        -0.1313
      7 C7          1.7549   -1.1005    4.1216 C.ar      1 MOL        -0.0251
      8 C8          1.1408   -2.1865    4.7455 C.ar      1 MOL        -0.1063
      9 C9          1.0764   -2.2462    6.1376 C.ar      1 MOL         0.0138
     10 C10         1.6261   -1.2198    6.9058 C.ar      1 MOL        -0.1158
     11 C11         2.2402   -0.1338    6.2819 C.ar      1 MOL        -0.1201
     12 C12         2.3045   -0.0742    4.8898 C.ar      1 MOL         0.0272
     13 Cl1         3.0776    1.2956    4.1704 Cl        1 MOL        -0.0776
     14 Cl2         0.3190   -3.5856    6.9086 Cl        1 MOL        -0.0860
     15 H1          1.9174   -1.0212   -1.1979 H         1 MOL         0.1315
     16 H2          3.7605   -2.0787    0.0844 H         1 MOL         0.1342
     17 H3          3.6927   -2.1196    2.5504 H         1 MOL         0.1391
     18 H4         -0.0840   -0.0332    2.4655 H         1 MOL         0.1391
     19 H5         -0.0009   -0.0015    0.0001 H         1 MOL         0.1342
     20 H6          0.7108   -2.9892    4.1491 H         1 MOL         0.1583
     21 H7          1.5833   -1.2530    7.9915 H         1 MOL         0.1517
     22 H8          2.6634    0.6573    6.8957 H         1 MOL         0.1525
@<TRIPOS>BOND
     1    1    6 ar
     2    1    2 ar
     3    2    3 ar
     4    3    4 ar
     5    4    5 ar
     6    5    6 ar
     7    4    7 1
     8    7   12 ar
     9    7    8 ar
    10    8    9 ar
    11    9   10 ar
    12   10   11 ar
    13   11   12 ar
    14   12   13 1
    15    9   14 1
    16    1   15 1
    17    2   16 1
    18    3   17 1
    19    5   18 1
    20    6   19 1
    21    8   20 1
    22   10   21 1
    23   11   22 1
