@<TRIPOS>MOLECULE
(2R)-pentan-2-ol
   18    17     0     0     0
SMALL
USER_CHARGES

@<TRIPOS>ATOM
      1 C1         -0.3307    0.7615   -0.7600 C.3       1 MOL        -0.0918
      2 C2          0.1199    0.3162   -2.1425 C.3       1 MOL        -0.0790
      3 C3         -0.5207   -1.0174   -2.5371 C.3       1 MOL        -0.0721
      4 C4         -0.0767   -1.4806   -3.9284 C.3       1 MOL         0.1395
      5 H1          1.0108   -1.6100   -3.9488 H         1 MOL         0.0285
      6 C5         -0.7421   -2.7935   -4.3187 C.3       1 MOL        -0.1306
      7 O1         -0.4070   -0.4938   -4.9021 O.3       1 MOL        -0.5997
      8 H2          0.1379    1.7152   -0.4976 H         1 MOL         0.0320
      9 H3         -0.0508    0.0251    0.0001 H         1 MOL         0.0320
     10 H4         -1.4166    0.8956   -0.7257 H         1 MOL         0.0320
     11 H5         -0.1434    1.0927   -2.8696 H         1 MOL         0.0470
     12 H6          1.2119    0.2202   -2.1503 H         1 MOL         0.0470
     13 H7         -0.2591   -1.7818   -1.7954 H         1 MOL         0.0461
     14 H8         -1.6117   -0.9003   -2.5183 H         1 MOL         0.0461
     15 H9         -0.4195   -3.1177   -5.3145 H         1 MOL         0.0421
     16 H10        -0.4555   -3.5880   -3.6213 H         1 MOL         0.0421
     17 H11        -1.8326   -2.7029   -4.3159 H         1 MOL         0.0421
     18 H12        -0.1053   -0.8376   -5.7573 H         1 MOL         0.3967
@<TRIPOS>BOND
     1    1    2 1
     2    2    3 1
     3    3    4 1
     4    4    5 1
     5    4    6 1
     6    4    7 1
     7    1    8 1
     8    1    9 1
     9    1   10 1
    10    2   11 1
    11    2   12 1
    12    3   13 1
    13    3   14 1
    14    6   15 1
    15    6   16 1
    16    6   17 1
    17    7   18 1
