@<TRIPOS>MOLECULE
1,2,3-trichloro-5-(2,5-dichlorophenyl)benzene
   22    23     0     0     0
SMALL
USER_CHARGES

@<TRIPOS>ATOM
      1 C1          1.8851   -1.0363   -0.1124 C.ar      1 MOL        -0.1111
      2 C2          2.9210   -1.6309    0.6081 C.ar      1 MOL        -0.1186
      3 C3          2.8783   -1.6520    2.0022 C.ar      1 MOL         0.0301
      4 C4          1.7997   -1.0786    2.6757 C.ar      1 MOL        -0.0380
      5 C5          0.7638   -0.4841    1.9551 C.ar      1 MOL        -0.1011
      6 C6          0.8066   -0.4630    0.5610 C.ar      1 MOL         0.0140
      7 Cl1        -0.4709    0.2702   -0.3291 Cl        1 MOL        -0.0788
      8 C7          1.7152   -1.0784    4.1241 C.ar      1 MOL        -0.0307
      9 C8          1.0906   -2.1352    4.7865 C.ar      1 MOL        -0.0972
     10 C9          1.0088   -2.1346    6.1790 C.ar      1 MOL         0.0216
     11 C10         1.5515   -1.0772    6.9090 C.ar      1 MOL         0.0214
     12 C11         2.1760   -0.0203    6.2466 C.ar      1 MOL         0.0216
     13 C12         2.2578   -0.0210    4.8541 C.ar      1 MOL        -0.0972
     14 Cl2         2.8717    1.3248    7.0840 Cl        1 MOL        -0.0587
     15 Cl3         1.4490   -1.0756    8.6439 Cl        1 MOL        -0.0421
     16 Cl4         0.2195   -3.4793    6.9304 Cl        1 MOL        -0.0587
     17 Cl5         4.1897   -2.4029    2.8437 Cl        1 MOL        -0.0702
     18 H1          1.9317   -1.0271   -1.1984 H         1 MOL         0.1541
     19 H2          3.7540   -2.0730    0.0673 H         1 MOL         0.1556
     20 H3         -0.0794   -0.0357    2.4774 H         1 MOL         0.1598
     21 H4          0.6676   -2.9592    4.2143 H         1 MOL         0.1621
     22 H5          2.7442    0.8027    4.3344 H         1 MOL         0.1621
@<TRIPOS>BOND
     1    1    6 ar
     2    1    2 ar
     3    2    3 ar
     4    3    4 ar
     5    4    5 ar
     6    5    6 ar
     7    6    7 1
     8    4    8 1
     9    8   13 ar
    10    8    9 ar
    11    9   10 ar
    12   10   11 ar
    13   11   12 ar
    14   12   13 ar
    15   12   14 1
    16   11   15 1
    17   10   16 1
    18    3   17 1
    19    1   18 1
    20    2   19 1
    21    5   20 1
    22    9   21 1
    23   13   22 1
