@<TRIPOS>MOLECULE
(E)-hex-2-enal
   17    16     0     0     0
SMALL
USER_CHARGES

@<TRIPOS>ATOM
      1 C1          0.1585    1.1487    2.5260 C.3       1 MOL        -0.0932
      2 C2         -0.1633    0.1124    1.4606 C.3       1 MOL        -0.0769
      3 C3         -0.0929    0.7142    0.0569 C.3       1 MOL        -0.0650
      4 C4         -0.4112   -0.3116   -0.9925 C.2       1 MOL        -0.0895
      5 C5          0.4447   -0.6646   -1.9591 C.2       1 MOL        -0.2737
      6 C6          0.0336   -1.6794   -2.9481 C.2       1 MOL         0.5567
      7 O1          0.7762   -2.0398   -3.8532 O.2       1 MOL        -0.5271
      8 H1          0.1061    0.7104    3.5279 H         1 MOL         0.0365
      9 H2          1.1627    1.5603    2.3825 H         1 MOL         0.0365
     10 H3         -0.5574    1.9753    2.4790 H         1 MOL         0.0365
     11 H4         -1.1652   -0.2933    1.6470 H         1 MOL         0.0430
     12 H5          0.5430   -0.7222    1.5477 H         1 MOL         0.0430
     13 H6          0.9018    1.1457   -0.1098 H         1 MOL         0.0556
     14 H7         -0.8141    1.5355   -0.0317 H         1 MOL         0.0556
     15 H8         -1.3986   -0.7647   -0.9430 H         1 MOL         0.1219
     16 H9          1.4350   -0.2345   -2.0482 H         1 MOL         0.1501
     17 H10        -0.9801   -2.0967   -2.8285 H         1 MOL        -0.0098
@<TRIPOS>BOND
     1    1    2 1
     2    2    3 1
     3    3    4 1
     4    4    5 2
     5    5    6 1
     6    6    7 2
     7    1    8 1
     8    1    9 1
     9    1   10 1
    10    2   11 1
    11    2   12 1
    12    3   13 1
    13    3   14 1
    14    4   15 1
    15    5   16 1
    16    6   17 1
