@<TRIPOS>MOLECULE
2-methylpyridine
   14    14     0     0     0
SMALL
USER_CHARGES

@<TRIPOS>ATOM
      1 C1          0.9810   -2.1301    4.7574 C.3       1 MOL        -0.1507
      2 C2          0.7299   -1.5161    3.4206 C.ar      1 MOL         0.4114
      3 C3          1.6520   -0.6227    2.8997 C.ar      1 MOL        -0.2479
      4 C4          1.3879   -0.0684    1.6522 C.ar      1 MOL        -0.0896
      5 C5          0.2265   -0.4197    0.9733 C.ar      1 MOL        -0.2540
      6 C6         -0.6317   -1.3224    1.5803 C.ar      1 MOL         0.3997
      7 N1         -0.4092   -1.8816    2.7908 N.ar      1 MOL        -0.6701
      8 H1          1.5430   -3.0619    4.6418 H         1 MOL         0.0532
      9 H2          1.5511   -1.4501    5.3991 H         1 MOL         0.0532
     10 H3          0.0385   -2.3464    5.2715 H         1 MOL         0.0532
     11 H4          2.5545   -0.3569    3.4396 H         1 MOL         0.1421
     12 H5          2.0859    0.6359    1.2097 H         1 MOL         0.1364
     13 H6          0.0002   -0.0003   -0.0003 H         1 MOL         0.1421
     14 H7         -1.5509   -1.6291    1.0922 H         1 MOL         0.0211
@<TRIPOS>BOND
     1    1    2 1
     2    2    7 ar
     3    2    3 ar
     4    3    4 ar
     5    4    5 ar
     6    5    6 ar
     7    6    7 ar
     8    1    8 1
     9    1    9 1
    10    1   10 1
    11    3   11 1
    12    4   12 1
    13    5   13 1
    14    6   14 1
