@<TRIPOS>MOLECULE
2-acetoxybenzoic acid
   21    21     0     0     0
SMALL
USER_CHARGES

@<TRIPOS>ATOM
      1 C1          1.4681   -2.0387   -3.5392 C.3       1 MOL        -0.1875
      2 C2          1.3503   -2.1438   -2.0476 C.2       1 MOL         0.6398
      3 O1          0.8137   -3.0759   -1.4636 O.2       1 MOL        -0.4458
      4 O2          1.9455   -1.0259   -1.4740 O.3       1 MOL        -0.3512
      5 C3          1.8851   -1.0363   -0.1124 C.ar      1 MOL         0.1734
      6 C4          2.9210   -1.6309    0.6081 C.ar      1 MOL        -0.2040
      7 C5          2.8783   -1.6520    2.0022 C.ar      1 MOL        -0.0723
      8 C6          1.7997   -1.0786    2.6757 C.ar      1 MOL        -0.1634
      9 C7          0.7638   -0.4841    1.9551 C.ar      1 MOL        -0.0537
     10 C8          0.8066   -0.4630    0.5610 C.ar      1 MOL        -0.1443
     11 C9         -0.2853    0.1628   -0.1719 C.2       1 MOL         0.6527
     12 O3         -0.1830    0.7168   -1.2701 O.2       1 MOL        -0.5200
     13 O4         -1.4709    0.0757    0.4897 O.3       1 MOL        -0.6181
     14 H1          0.5972   -1.5173   -3.9443 H         1 MOL         0.0819
     15 H2          1.5043   -3.0431   -3.9710 H         1 MOL         0.0819
     16 H3          2.3895   -1.5129   -3.8019 H         1 MOL         0.0819
     17 H4          3.7642   -2.0794    0.0899 H         1 MOL         0.1535
     18 H5          3.6848   -2.1149    2.5633 H         1 MOL         0.1431
     19 H6          1.7665   -1.0952    3.7611 H         1 MOL         0.1449
     20 H7         -0.0715   -0.0407    2.4911 H         1 MOL         0.1606
     21 H8         -2.2134    0.4937    0.0036 H         1 MOL         0.4467
@<TRIPOS>BOND
     1    1    2 1
     2    2    3 2
     3    2    4 1
     4    4    5 1
     5    5   10 ar
     6    5    6 ar
     7    6    7 ar
     8    7    8 ar
     9    8    9 ar
    10    9   10 ar
    11   10   11 1
    12   11   12 2
    13   11   13 1
    14    1   14 1
    15    1   15 1
    16    1   16 1
    17    6   17 1
    18    7   18 1
    19    8   19 1
    20    9   20 1
    21   13   21 1
