@<TRIPOS>MOLECULE
2-methoxyethanol
   13    12     0     0     0
SMALL
USER_CHARGES

@<TRIPOS>ATOM
      1 C1          0.3042    0.8204    2.4305 C.3       1 MOL         0.1148
      2 O1         -0.8526    0.2362    1.8472 O.3       1 MOL        -0.4152
      3 C2         -0.8936    0.4506    0.4416 C.3       1 MOL         0.1177
      4 C3         -2.1461   -0.1936   -0.1209 C.3       1 MOL         0.1308
      5 O2         -2.1145   -1.5886    0.1552 O.3       1 MOL        -0.5961
      6 H1          0.3025    0.6364    3.5077 H         1 MOL         0.0325
      7 H2          0.3093    1.8954    2.2337 H         1 MOL         0.0325
      8 H3          1.1937    0.3665    1.9872 H         1 MOL         0.0325
      9 H4         -0.8901    1.5299    0.2612 H         1 MOL         0.0379
     10 H5          0.0000    0.0000    0.0000 H         1 MOL         0.0379
     11 H6         -2.2043   -0.0621   -1.2059 H         1 MOL         0.0362
     12 H7         -3.0385    0.2289    0.3500 H         1 MOL         0.0362
     13 H8         -2.9276   -1.9652   -0.2177 H         1 MOL         0.4023
@<TRIPOS>BOND
     1    1    2 1
     2    2    3 1
     3    3    4 1
     4    4    5 1
     5    1    6 1
     6    1    7 1
     7    1    8 1
     8    3    9 1
     9    3   10 1
    10    4   11 1
    11    4   12 1
    12    5   13 1
