@<TRIPOS>MOLECULE
3,3,3-trimethoxypropanenitrile
   21    20     0     0     0
SMALL
USER_CHARGES

@<TRIPOS>ATOM
      1 C1         -0.5707    0.9482    2.0210 C.3       1 MOL         0.1306
      2 O1         -0.9294    0.5640    0.7015 O.3       1 MOL        -0.4432
      3 C2          0.1206   -0.0252   -0.0936 C.3       1 MOL         0.5322
      4 C3          0.6614   -1.3150    0.5754 C.3       1 MOL        -0.0362
      5 C4          1.7374   -1.9488   -0.2066 C.1       1 MOL         0.2256
      6 N1          2.5843   -2.4490   -0.8221 N.1       1 MOL        -0.3582
      7 O2         -0.3759   -0.3375   -1.4153 O.3       1 MOL        -0.4432
      8 C5         -1.6928   -0.8697   -1.4649 C.3       1 MOL         0.1306
      9 O3          1.2561    0.8654   -0.2056 O.3       1 MOL        -0.4432
     10 C6          0.9477    2.1135   -0.8137 C.3       1 MOL         0.1306
     11 H1         -1.4395    1.3790    2.5247 H         1 MOL         0.0437
     12 H2          0.2403    1.6797    1.9808 H         1 MOL         0.0437
     13 H3         -0.2352    0.0650    2.5696 H         1 MOL         0.0437
     14 H4          1.0622   -1.0831    1.5696 H         1 MOL         0.0908
     15 H5         -0.1505   -2.0343    0.7313 H         1 MOL         0.0908
     16 H6         -1.9622   -1.0668   -2.5035 H         1 MOL         0.0437
     17 H7         -2.3871   -0.1537   -1.0223 H         1 MOL         0.0437
     18 H8         -1.7155   -1.8011   -0.8976 H         1 MOL         0.0437
     19 H9          1.8511    2.7227   -0.8603 H         1 MOL         0.0437
     20 H10         0.1788    2.6182   -0.2272 H         1 MOL         0.0437
     21 H11         0.5776    1.9282   -1.8226 H         1 MOL         0.0437
@<TRIPOS>BOND
     1    1    2 1
     2    2    3 1
     3    3    4 1
     4    4    5 1
     5    5    6 3
     6    3    7 1
     7    7    8 1
     8    3    9 1
     9    9   10 1
    10    1   11 1
    11    1   12 1
    12    1   13 1
    13    4   14 1
    14    4   15 1
    15    8   16 1
    16    8   17 1
    17    8   18 1
    18   10   19 1
    19   10   20 1
    20   10   21 1
