@<TRIPOS>MOLECULE
acetonyl nitrate
   13    12     0     0     0
SMALL
USER_CHARGES

@<TRIPOS>ATOM
      1 C1         -0.4706    0.2914   -0.9334 C.3       1 MOL        -0.2041
      2 C2         -1.7473    1.0396   -0.6554 C.2       1 MOL         0.5671
      3 O1         -1.9074    2.1962   -1.0425 O.2       1 MOL        -0.4760
      4 C3         -2.8085    0.2895    0.1212 C.3       1 MOL         0.0158
      5 O2         -3.9499    1.0979    0.3143 O.3       1 MOL        -0.3216
      6 N1         -4.9963    0.4564    1.0410 N.pl3     1 MOL         0.3743
      7 O3         -4.7973   -0.7026    1.4121 O.2       1 MOL        -0.1762
      8 O4         -5.9854    1.1725    1.2020 O.3       1 MOL        -0.1762
      9 H1          0.2399    0.4584   -0.1190 H         1 MOL         0.0733
     10 H2         -0.6814   -0.7784   -1.0045 H         1 MOL         0.0733
     11 H3         -0.0304    0.6523   -1.8662 H         1 MOL         0.0733
     12 H4         -2.4119   -0.0099    1.0952 H         1 MOL         0.0885
     13 H5         -3.1045   -0.5973   -0.4453 H         1 MOL         0.0885
@<TRIPOS>BOND
     1    1    2 1
     2    2    3 2
     3    2    4 1
     4    4    5 1
     5    5    6 1
     6    6    7 2
     7    6    8 1
     8    1    9 1
     9    1   10 1
    10    1   11 1
    11    4   12 1
    12    4   13 1
