@<TRIPOS>MOLECULE
piperazine
   16    16     0     0     0
SMALL
USER_CHARGES

@<TRIPOS>ATOM
      1 C1         -0.8449   -1.0558   -0.4431 C.3       1 MOL         0.1594
      2 C2         -0.8416    0.3213   -1.1066 C.3       1 MOL         0.1594
      3 N1         -0.4512    1.3643   -0.1581 N.3       1 MOL        -0.8174
      4 C3          0.8459    1.0594    0.4455 C.3       1 MOL         0.1594
      5 C4          0.8377   -0.3196    1.1048 C.3       1 MOL         0.1594
      6 N2          0.4541   -1.3696    0.1575 N.3       1 MOL        -0.8174
      7 H1         -1.0847   -1.8212   -1.1896 H         1 MOL         0.0343
      8 H2         -1.6276   -1.1095    0.3238 H         1 MOL         0.0343
      9 H3         -0.1640    0.3268   -1.9698 H         1 MOL         0.0343
     10 H4         -1.8456    0.5434   -1.4843 H         1 MOL         0.0343
     11 H5         -0.3997    2.2610   -0.6404 H         1 MOL         0.3614
     12 H6          1.6353    1.1136   -0.3148 H         1 MOL         0.0343
     13 H7          1.0733    1.8200    1.2001 H         1 MOL         0.0343
     14 H8          1.8358   -0.5435    1.4973 H         1 MOL         0.0343
     15 H9          0.1538   -0.3300    1.9626 H         1 MOL         0.0343
     16 H10         0.3750   -2.2525    0.6633 H         1 MOL         0.3614
@<TRIPOS>BOND
     1    1    6 1
     2    1    2 1
     3    2    3 1
     4    3    4 1
     5    4    5 1
     6    5    6 1
     7    1    7 1
     8    1    8 1
     9    2    9 1
    10    2   10 1
    11    3   11 1
    12    4   12 1
    13    4   13 1
    14    5   14 1
    15    5   15 1
    16    6   16 1
