@<TRIPOS>MOLECULE
4-hydroxybenzonitrile
   14    14     0     0     0
SMALL
USER_CHARGES

@<TRIPOS>ATOM
      1 C1          1.8851   -1.0363   -0.1124 C.ar      1 MOL        -0.0530
      2 C2          2.9210   -1.6309    0.6081 C.ar      1 MOL        -0.1925
      3 C3          2.8783   -1.6520    2.0022 C.ar      1 MOL         0.1491
      4 C4          1.7997   -1.0786    2.6757 C.ar      1 MOL        -0.1925
      5 C5          0.7638   -0.4841    1.9551 C.ar      1 MOL        -0.0530
      6 C6          0.8066   -0.4630    0.5610 C.ar      1 MOL        -0.0584
      7 C7         -0.2547    0.1457   -0.1772 C.1       1 MOL         0.2373
      8 N1         -1.1177    0.6407   -0.7775 N.1       1 MOL        -0.3681
      9 O1          3.8891   -2.2321    2.7051 O.3       1 MOL        -0.4907
     10 H1          1.9324   -1.0283   -1.1988 H         1 MOL         0.1480
     11 H2          3.7582   -2.0766    0.0779 H         1 MOL         0.1503
     12 H3          1.7610   -1.0917    3.7615 H         1 MOL         0.1503
     13 H4         -0.0700   -0.0410    2.4943 H         1 MOL         0.1480
     14 H5          3.7165   -2.1675    3.6580 H         1 MOL         0.4251
@<TRIPOS>BOND
     1    1    6 ar
     2    1    2 ar
     3    2    3 ar
     4    3    4 ar
     5    4    5 ar
     6    5    6 ar
     7    6    7 1
     8    7    8 3
     9    3    9 1
    10    1   10 1
    11    2   11 1
    12    4   12 1
    13    5   13 1
    14    9   14 1
