@<TRIPOS>MOLECULE
butanal
   13    12     0     0     0
SMALL
USER_CHARGES

@<TRIPOS>ATOM
      1 C1         -1.2663   -1.0584    0.6899 C.3       1 MOL        -0.0931
      2 C2         -0.6335   -0.0320   -0.2353 C.3       1 MOL        -0.0769
      3 C3          0.8304    0.2084    0.1144 C.3       1 MOL        -0.1980
      4 C4          1.4839    1.2250   -0.7904 C.2       1 MOL         0.5631
      5 O1          0.9201    1.8063   -1.7113 O.2       1 MOL        -0.5249
      6 H1         -2.3170   -1.2246    0.4316 H         1 MOL         0.0344
      7 H2         -0.7413   -2.0154    0.6099 H         1 MOL         0.0344
      8 H3         -1.2164   -0.7297    1.7328 H         1 MOL         0.0344
      9 H4         -1.1933    0.9087   -0.1693 H         1 MOL         0.0529
     10 H5         -0.7187   -0.3782   -1.2723 H         1 MOL         0.0529
     11 H6          0.9235    0.5747    1.1425 H         1 MOL         0.0660
     12 H7          1.4019   -0.7223    0.0303 H         1 MOL         0.0660
     13 H8          2.5462    1.4279   -0.5700 H         1 MOL        -0.0111
@<TRIPOS>BOND
     1    1    2 1
     2    2    3 1
     3    3    4 1
     4    4    5 2
     5    1    6 1
     6    1    7 1
     7    1    8 1
     8    2    9 1
     9    2   10 1
    10    3   11 1
    11    3   12 1
    12    4   13 1
