@<TRIPOS>MOLECULE
isopropyl formate
   14    13     0     0     0
SMALL
USER_CHARGES

@<TRIPOS>ATOM
      1 C1          1.0765    0.0499    0.1958 C.3       1 MOL        -0.1061
      2 C2          1.3532    0.9191    1.4130 C.3       1 MOL         0.1358
      3 C3          2.8427    1.0382    1.6976 C.3       1 MOL        -0.1061
      4 O1          0.8123    2.2184    1.1940 O.3       1 MOL        -0.4439
      5 C4          0.3773    2.8688    2.3074 C.2       1 MOL         0.6316
      6 O2          0.4005    2.4637    3.4590 O.2       1 MOL        -0.5411
      7 H1          0.0028   -0.0291    0.0000 H         1 MOL         0.0473
      8 H2          1.5641    0.4693   -0.6907 H         1 MOL         0.0473
      9 H3          1.4833   -0.9585    0.3305 H         1 MOL         0.0473
     10 H4          0.8468    0.4961    2.2868 H         1 MOL         0.0676
     11 H5          3.0308    1.6651    2.5746 H         1 MOL         0.0473
     12 H6          3.3614    1.4749    0.8374 H         1 MOL         0.0473
     13 H7          3.2912    0.0533    1.8684 H         1 MOL         0.0473
     14 H8         -0.0146    3.8539    2.0105 H         1 MOL         0.0784
@<TRIPOS>BOND
     1    1    2 1
     2    2    3 1
     3    2    4 1
     4    4    5 1
     5    5    6 2
     6    1    7 1
     7    1    8 1
     8    1    9 1
     9    2   10 1
    10    3   11 1
    11    3   12 1
    12    3   13 1
    13    5   14 1
