@<TRIPOS>MOLECULE
bromo(trifluoro)methane
    5     4     0     0     0
SMALL
USER_CHARGES

@<TRIPOS>ATOM
      1 C1          0.0402   -0.0264   -0.0761 C.3       1 MOL         0.7073
      2 F1          1.2209    0.6099   -0.2543 F         1 MOL        -0.2071
      3 F2          0.2904   -1.3558   -0.0650 F         1 MOL        -0.2071
      4 F3         -0.7317    0.2349   -1.1562 F         1 MOL        -0.2071
      5 Br1        -0.8198    0.5373    1.5516 Br        1 MOL        -0.0859
@<TRIPOS>BOND
     1    1    2 1
     2    1    3 1
     3    1    4 1
     4    1    5 1
