@<TRIPOS>MOLECULE
2-isobutylpyrazine
   22    22     0     0     0
SMALL
USER_CHARGES

@<TRIPOS>ATOM
      1 C1          0.1917   -0.1014    0.9400 C.3       1 MOL        -0.0935
      2 C2         -0.6434    0.6475    1.9816 C.3       1 MOL        -0.0646
      3 C3         -0.0721    0.3940    3.3790 C.3       1 MOL        -0.0935
      4 C4         -0.6900    2.1628    1.7040 C.3       1 MOL        -0.1255
      5 C5         -1.2871    2.5197    0.3646 C.ar      1 MOL         0.3044
      6 C6         -2.6408    2.7420    0.2397 C.ar      1 MOL         0.2799
      7 N1         -3.2055    3.0613   -0.9417 N.ar      1 MOL        -0.6292
      8 C7         -2.3678    3.1503   -1.9938 C.ar      1 MOL         0.2735
      9 C8         -1.0140    2.9287   -1.8689 C.ar      1 MOL         0.2849
     10 N2         -0.4494    2.6091   -0.6875 N.ar      1 MOL        -0.6347
     11 H1         -0.1950    0.0620   -0.0717 H         1 MOL         0.0362
     12 H2          0.1965   -1.1786    1.1332 H         1 MOL         0.0362
     13 H3          1.2330    0.2378    0.9617 H         1 MOL         0.0362
     14 H4         -1.6618    0.2391    1.9586 H         1 MOL         0.0606
     15 H5         -0.6564    0.9220    4.1401 H         1 MOL         0.0362
     16 H6         -0.0812   -0.6735    3.6247 H         1 MOL         0.0362
     17 H7          0.9614    0.7496    3.4473 H         1 MOL         0.0362
     18 H8          0.3182    2.5893    1.7889 H         1 MOL         0.0601
     19 H9         -1.2868    2.6637    2.4783 H         1 MOL         0.0601
     20 H10        -3.3209    2.6706    1.0804 H         1 MOL         0.0338
     21 H11        -2.8217    3.4063   -2.9430 H         1 MOL         0.0336
     22 H12        -0.3409    3.0013   -2.7142 H         1 MOL         0.0328
@<TRIPOS>BOND
     1    1    2 1
     2    2    3 1
     3    2    4 1
     4    4    5 1
     5    5   10 ar
     6    5    6 ar
     7    6    7 ar
     8    7    8 ar
     9    8    9 ar
    10    9   10 ar
    11    1   11 1
    12    1   12 1
    13    1   13 1
    14    2   14 1
    15    3   15 1
    16    3   16 1
    17    3   17 1
    18    4   18 1
    19    4   19 1
    20    6   20 1
    21    8   21 1
    22    9   22 1
