@<TRIPOS>MOLECULE
2-fluorophenol
   13    13     0     0     0
SMALL
USER_CHARGES

@<TRIPOS>ATOM
      1 C1          1.8851   -1.0363   -0.1124 C.ar      1 MOL        -0.1076
      2 C2          2.9210   -1.6309    0.6081 C.ar      1 MOL        -0.1435
      3 C3          2.8783   -1.6520    2.0022 C.ar      1 MOL        -0.1223
      4 C4          1.7997   -1.0786    2.6757 C.ar      1 MOL         0.0353
      5 C5          0.7638   -0.4841    1.9551 C.ar      1 MOL         0.0980
      6 C6          0.8066   -0.4630    0.5610 C.ar      1 MOL        -0.1386
      7 O1         -0.2894    0.0756    2.6112 O.3       1 MOL        -0.4895
      8 F1          1.7645   -1.1020    4.0152 F         1 MOL        -0.1472
      9 H1          1.9177   -1.0204   -1.1981 H         1 MOL         0.1401
     10 H2          3.7609   -2.0769    0.0835 H         1 MOL         0.1393
     11 H3          3.6849   -2.1144    2.5634 H         1 MOL         0.1501
     12 H4          0.0026   -0.0018   -0.0060 H         1 MOL         0.1553
     13 H5         -0.1759   -0.0178    3.5704 H         1 MOL         0.4305
@<TRIPOS>BOND
     1    1    6 ar
     2    1    2 ar
     3    2    3 ar
     4    3    4 ar
     5    4    5 ar
     6    5    6 ar
     7    5    7 1
     8    4    8 1
     9    1    9 1
    10    2   10 1
    11    3   11 1
    12    6   12 1
    13    7   13 1
