@<TRIPOS>MOLECULE
2-methoxyethanamine
   14    13     0     0     0
SMALL
USER_CHARGES

@<TRIPOS>ATOM
      1 C1         -0.5619   -4.0348    1.8950 C.3       1 MOL         0.1120
      2 O1         -0.4496   -2.6238    2.0236 O.3       1 MOL        -0.4104
      3 C2         -0.3627   -1.9891    0.7542 C.3       1 MOL         0.0797
      4 C3         -0.2448   -0.4884    0.9480 C.3       1 MOL         0.1481
      5 N1         -0.1540    0.1772   -0.3716 N.3       1 MOL        -0.9016
      6 H1         -0.6263   -4.4879    2.8873 H         1 MOL         0.0343
      7 H2          0.3091   -4.4233    1.3611 H         1 MOL         0.0343
      8 H3         -1.4673   -4.2693    1.3303 H         1 MOL         0.0343
      9 H4          0.5272   -2.3723    0.2452 H         1 MOL         0.0226
     10 H5         -1.2496   -2.2509    0.1681 H         1 MOL         0.0226
     11 H6         -1.1159   -0.0868    1.4755 H         1 MOL         0.0666
     12 H7          0.6596   -0.2474    1.5147 H         1 MOL         0.0666
     13 H8         -1.0031    0.3589   -0.8418 H         1 MOL         0.3456
     14 H9          0.7379    0.2160   -0.7939 H         1 MOL         0.3456
@<TRIPOS>BOND
     1    1    2 1
     2    2    3 1
     3    3    4 1
     4    4    5 1
     5    1    6 1
     6    1    7 1
     7    1    8 1
     8    3    9 1
     9    3   10 1
    10    4   11 1
    11    4   12 1
    12    5   13 1
    13    5   14 1
