@<TRIPOS>MOLECULE
m-cresol
   16    16     0     0     0
SMALL
USER_CHARGES

@<TRIPOS>ATOM
      1 C1          1.9309   -1.0139   -1.6027 C.3       1 MOL        -0.0567
      2 C2          1.8851   -1.0363   -0.1124 C.ar      1 MOL        -0.0430
      3 C3          2.9210   -1.6309    0.6081 C.ar      1 MOL        -0.1662
      4 C4          2.8783   -1.6520    2.0022 C.ar      1 MOL        -0.0881
      5 C5          1.7997   -1.0786    2.6757 C.ar      1 MOL        -0.2197
      6 C6          0.7638   -0.4841    1.9551 C.ar      1 MOL         0.1274
      7 C7          0.8066   -0.4630    0.5610 C.ar      1 MOL        -0.1586
      8 O1         -0.2885    0.0757    2.6119 O.3       1 MOL        -0.4996
      9 H1          2.4387   -0.1082   -1.9482 H         1 MOL         0.0465
     10 H2          2.4636   -1.8884   -1.9907 H         1 MOL         0.0465
     11 H3          0.9207   -1.0365   -2.0252 H         1 MOL         0.0465
     12 H4          3.7654   -2.0801    0.0918 H         1 MOL         0.1332
     13 H5          3.6850   -2.1145    2.5631 H         1 MOL         0.1317
     14 H6          1.7717   -1.0978    3.7618 H         1 MOL         0.1323
     15 H7         -0.0022    0.0009    0.0015 H         1 MOL         0.1494
     16 H8         -0.1745   -0.0176    3.5712 H         1 MOL         0.4184
@<TRIPOS>BOND
     1    1    2 1
     2    2    7 ar
     3    2    3 ar
     4    3    4 ar
     5    4    5 ar
     6    5    6 ar
     7    6    7 ar
     8    6    8 1
     9    1    9 1
    10    1   10 1
    11    1   11 1
    12    3   12 1
    13    4   13 1
    14    5   14 1
    15    7   15 1
    16    8   16 1
