@<TRIPOS>MOLECULE
methyl octanoate
   29    28     0     0     0
SMALL
USER_CHARGES

@<TRIPOS>ATOM
      1 C1          0.7441    0.1624   -0.7797 C.3       1 MOL        -0.0924
      2 C2          1.0047   -1.1133   -1.5648 C.3       1 MOL        -0.0804
      3 C3          1.5223   -2.2315   -0.6606 C.3       1 MOL        -0.0828
      4 C4          1.7832   -3.5129   -1.4542 C.3       1 MOL        -0.0796
      5 C5          2.3013   -4.6323   -0.5488 C.3       1 MOL        -0.0781
      6 C6          2.5620   -5.9146   -1.3454 C.3       1 MOL        -0.0777
      7 C7          3.0811   -7.0525   -0.4666 C.3       1 MOL        -0.1262
      8 C8          3.3443   -8.3276   -1.2367 C.2       1 MOL         0.6282
      9 O1          3.1721   -8.4734   -2.4391 O.2       1 MOL        -0.5423
     10 O2          3.8317   -9.2715   -0.3779 O.3       1 MOL        -0.4430
     11 C9          4.1605  -10.5326   -0.9699 C.3       1 MOL         0.1261
     12 H1          0.3739    0.9575   -1.4349 H         1 MOL         0.0335
     13 H2          1.6578    0.5164   -0.2915 H         1 MOL         0.0335
     14 H3         -0.0077   -0.0165   -0.0047 H         1 MOL         0.0335
     15 H4          0.0766   -1.4299   -2.0548 H         1 MOL         0.0376
     16 H5          1.7348   -0.9058   -2.3559 H         1 MOL         0.0376
     17 H6          2.4483   -1.9082   -0.1697 H         1 MOL         0.0426
     18 H7          0.7902   -2.4322    0.1310 H         1 MOL         0.0426
     19 H8          2.5153   -3.3120   -2.2457 H         1 MOL         0.0393
     20 H9          0.8570   -3.8363   -1.9445 H         1 MOL         0.0393
     21 H10         3.2293   -4.3088   -0.0617 H         1 MOL         0.0427
     22 H11         1.5709   -4.8243    0.2456 H         1 MOL         0.0427
     23 H12         1.6461   -6.2231   -1.8637 H         1 MOL         0.0566
     24 H13         3.3111   -5.7052   -2.1189 H         1 MOL         0.0566
     25 H14         4.0300   -6.7493   -0.0097 H         1 MOL         0.0804
     26 H15         2.3608   -7.2585    0.3332 H         1 MOL         0.0804
     27 H16         4.5351  -11.1961   -0.1938 H         1 MOL         0.0498
     28 H17         4.9133  -10.3724   -1.7386 H         1 MOL         0.0498
     29 H18         3.2569  -10.9466   -1.4116 H         1 MOL         0.0498
@<TRIPOS>BOND
     1    1    2 1
     2    2    3 1
     3    3    4 1
     4    4    5 1
     5    5    6 1
     6    6    7 1
     7    7    8 1
     8    8    9 2
     9    8   10 1
    10   10   11 1
    11    1   12 1
    12    1   13 1
    13    1   14 1
    14    2   15 1
    15    2   16 1
    16    3   17 1
    17    3   18 1
    18    4   19 1
    19    4   20 1
    20    5   21 1
    21    5   22 1
    22    6   23 1
    23    6   24 1
    24    7   25 1
    25    7   26 1
    26   11   27 1
    27   11   28 1
    28   11   29 1
