@<TRIPOS>MOLECULE
nitromethane
    7     6     0     0     0
SMALL
USER_CHARGES

@<TRIPOS>ATOM
      1 C1         -0.5250   -0.7555    0.5873 C.3       1 MOL        -0.1027
      2 N1         -1.8333   -0.9731   -0.0158 N.pl3     1 MOL         0.2342
      3 O1         -2.4132   -2.0586    0.2080 O.2       1 MOL        -0.2091
      4 O2         -2.3095   -0.0741   -0.7435 O.3       1 MOL        -0.2091
      5 H1          0.2340   -1.1194   -0.1073 H         1 MOL         0.0956
      6 H2         -0.4863   -1.3090    1.5273 H         1 MOL         0.0956
      7 H3         -0.4051    0.3147    0.7650 H         1 MOL         0.0956
@<TRIPOS>BOND
     1    1    2 1
     2    2    3 2
     3    2    4 1
     4    1    5 1
     5    1    6 1
     6    1    7 1
