@<TRIPOS>MOLECULE
1-butoxybutane
   27    26     0     0     0
SMALL
USER_CHARGES

@<TRIPOS>ATOM
      1 C1          0.7030   -2.2329   -0.7710 C.3       1 MOL        -0.0919
      2 C2         -0.4191   -2.6451    0.1683 C.3       1 MOL        -0.0783
      3 C3         -1.7782   -2.5830   -0.5230 C.3       1 MOL        -0.0841
      4 C4         -2.9047   -2.9950    0.4140 C.3       1 MOL         0.1318
      5 O1         -4.1377   -2.9159   -0.2877 O.3       1 MOL        -0.4247
      6 C5         -5.2329   -3.2900    0.5372 C.3       1 MOL         0.1318
      7 C6         -6.5171   -3.1833   -0.2727 C.3       1 MOL        -0.0841
      8 C7         -7.7388   -3.5722    0.5549 C.3       1 MOL        -0.0783
      9 C8         -9.0193   -3.4644   -0.2574 C.3       1 MOL        -0.0918
     10 H1          1.6737   -2.2803   -0.2672 H         1 MOL         0.0344
     11 H2          0.7392   -2.8856   -1.6491 H         1 MOL         0.0344
     12 H3          0.5497   -1.2060   -1.1171 H         1 MOL         0.0344
     13 H4         -0.2308   -3.6631    0.5285 H         1 MOL         0.0381
     14 H5         -0.4157   -1.9853    1.0437 H         1 MOL         0.0381
     15 H6         -1.9687   -1.5691   -0.8963 H         1 MOL         0.0538
     16 H7         -1.7848   -3.2334   -1.4067 H         1 MOL         0.0538
     17 H8         -2.7673   -4.0239    0.7614 H         1 MOL         0.0238
     18 H9         -2.9546   -2.3293    1.2816 H         1 MOL         0.0238
     19 H10        -5.2603   -2.6213    1.4033 H         1 MOL         0.0238
     20 H11        -5.0729   -4.3160    0.8833 H         1 MOL         0.0238
     21 H12        -6.4406   -3.8227   -1.1609 H         1 MOL         0.0538
     22 H13        -6.6245   -2.1586   -0.6500 H         1 MOL         0.0538
     23 H14        -7.8151   -2.9222    1.4343 H         1 MOL         0.0381
     24 H15        -7.6301   -4.6002    0.9197 H         1 MOL         0.0381
     25 H16        -9.8901   -3.7450    0.3437 H         1 MOL         0.0344
     26 H17        -9.1679   -2.4428   -0.6217 H         1 MOL         0.0344
     27 H18        -8.9757   -4.1311   -1.1242 H         1 MOL         0.0344
@<TRIPOS>BOND
     1    1    2 1
     2    2    3 1
     3    3    4 1
     4    4    5 1
     5    5    6 1
     6    6    7 1
     7    7    8 1
     8    8    9 1
     9    1   10 1
    10    1   11 1
    11    1   12 1
    12    2   13 1
    13    2   14 1
    14    3   15 1
    15    3   16 1
    16    4   17 1
    17    4   18 1
    18    6   19 1
    19    6   20 1
    20    7   21 1
    21    7   22 1
    22    8   23 1
    23    8   24 1
    24    9   25 1
    25    9   26 1
    26    9   27 1
