@<TRIPOS>MOLECULE
octan-1-amine
   28    27     0     0     0
SMALL
USER_CHARGES

@<TRIPOS>ATOM
      1 C1          4.0830   -1.0329    3.7438 C.3       1 MOL        -0.0914
      2 C2          3.4618   -0.0557    2.7586 C.3       1 MOL        -0.0794
      3 C3          4.4956    0.4654    1.7595 C.3       1 MOL        -0.0785
      4 C4          3.8644    1.4479    0.7711 C.3       1 MOL        -0.0773
      5 C5          4.8562    2.0034   -0.2556 C.3       1 MOL        -0.0780
      6 C6          4.2826    2.9942   -1.2741 C.3       1 MOL        -0.0737
      7 C7          5.3230    3.5125   -2.2720 C.3       1 MOL        -0.1217
      8 C8          4.7303    4.4969   -3.2761 C.3       1 MOL         0.1570
      9 N1          5.7064    4.9827   -4.2117 N.3       1 MOL        -0.9178
     10 H1          3.3269   -1.3928    4.4485 H         1 MOL         0.0332
     11 H2          4.5035   -1.8999    3.2244 H         1 MOL         0.0332
     12 H3          4.8829   -0.5551    4.3185 H         1 MOL         0.0332
     13 H4          3.0228    0.7823    3.3124 H         1 MOL         0.0376
     14 H5          2.6455   -0.5545    2.2234 H         1 MOL         0.0376
     15 H6          5.3117    0.9601    2.2998 H         1 MOL         0.0378
     16 H7          4.9299   -0.3835    1.2195 H         1 MOL         0.0378
     17 H8          3.0204    0.9711    0.2598 H         1 MOL         0.0391
     18 H9          3.4450    2.2957    1.3278 H         1 MOL         0.0391
     19 H10         5.6786    2.4882    0.2852 H         1 MOL         0.0384
     20 H11         5.3025    1.1646   -0.8044 H         1 MOL         0.0384
     21 H12         3.8126    3.8374   -0.7550 H         1 MOL         0.0409
     22 H13         3.4786    2.4831   -1.8178 H         1 MOL         0.0409
     23 H14         5.7752    2.6668   -2.8044 H         1 MOL         0.0375
     24 H15         6.1266    4.0250   -1.7320 H         1 MOL         0.0375
     25 H16         4.3301    5.3701   -2.7510 H         1 MOL         0.0504
     26 H17         3.9157    4.0399   -3.8470 H         1 MOL         0.0504
     27 H18         5.9263    4.4299   -5.0258 H         1 MOL         0.3489
     28 H19         6.3001    5.7540   -3.9483 H         1 MOL         0.3489
@<TRIPOS>BOND
     1    1    2 1
     2    2    3 1
     3    3    4 1
     4    4    5 1
     5    5    6 1
     6    6    7 1
     7    7    8 1
     8    8    9 1
     9    1   10 1
    10    1   11 1
    11    1   12 1
    12    2   13 1
    13    2   14 1
    14    3   15 1
    15    3   16 1
    16    4   17 1
    17    4   18 1
    18    5   19 1
    19    5   20 1
    20    6   21 1
    21    6   22 1
    22    7   23 1
    23    7   24 1
    24    8   25 1
    25    8   26 1
    26    9   27 1
    27    9   28 1
