@<TRIPOS>MOLECULE
(3aR,7aR)-2-(trichloromethylsulfanyl)-3a,4,7,7a-tetrahydroisoindole-1,3-dione
   24    25     0     0     0
SMALL
USER_CHARGES

@<TRIPOS>ATOM
      1 C1         -1.7044    1.3903    0.1393 C.3       1 MOL        -0.0348
      2 C2         -1.8323    1.9213   -1.2709 C.2       1 MOL        -0.1699
      3 C3         -1.0013    1.5780   -2.2741 C.2       1 MOL        -0.1699
      4 C4          0.1163    0.5698   -2.1260 C.3       1 MOL        -0.0348
      5 C5         -0.0708   -0.2188   -0.8422 C.3       1 MOL        -0.1406
      6 H1         -0.9133   -0.9174   -0.9692 H         1 MOL         0.0991
      7 C6         -0.3471    0.7345    0.3194 C.3       1 MOL        -0.1406
      8 H2          0.4274    1.5171    0.3614 H         1 MOL         0.0991
      9 C7         -0.0979   -0.1527    1.5119 C.2       1 MOL         0.7062
     10 O1         -0.5951   -0.0149    2.6177 O.2       1 MOL        -0.5255
     11 N1          0.8595   -1.0619    1.0756 N.am      1 MOL        -0.4684
     12 C8          1.0672   -1.0441   -0.2993 C.2       1 MOL         0.7062
     13 O2          1.9153   -1.6137   -0.9664 O.2       1 MOL        -0.5255
     14 S1          1.6893   -2.0876    2.1193 S.3       1 MOL         0.1020
     15 C9          3.1273   -1.0467    2.5322 C.3       1 MOL         0.2327
     16 Cl1         4.1870   -1.9505    3.6638 Cl        1 MOL        -0.0956
     17 Cl2         4.0798   -0.6534    1.0710 Cl        1 MOL        -0.0956
     18 Cl3         2.6168    0.4668    3.3355 Cl        1 MOL        -0.0956
     19 H3         -2.5189    0.6852    0.3411 H         1 MOL         0.0702
     20 H4         -1.8109    2.2149    0.8532 H         1 MOL         0.0702
     21 H5         -2.6318    2.6305   -1.4652 H         1 MOL         0.1353
     22 H6         -1.1394    2.0277   -3.2531 H         1 MOL         0.1353
     23 H7          0.1082   -0.1152   -2.9814 H         1 MOL         0.0702
     24 H8          1.0820    1.0880   -2.1397 H         1 MOL         0.0702
@<TRIPOS>BOND
     1    1    7 1
     2    1    2 1
     3    2    3 2
     4    3    4 1
     5    4    5 1
     6    5    6 1
     7    5   12 1
     8    5    7 1
     9    7    8 1
    10    7    9 1
    11    9   10 2
    12    9   11 am
    13   11   12 am
    14   12   13 2
    15   11   14 1
    16   14   15 1
    17   15   16 1
    18   15   17 1
    19   15   18 1
    20    1   19 1
    21    1   20 1
    22    2   21 1
    23    3   22 1
    24    4   23 1
    25    4   24 1
