@<TRIPOS>MOLECULE
ethanamine
   10     9     0     0     0
SMALL
USER_CHARGES

@<TRIPOS>ATOM
      1 C1          0.4075    0.1872    0.9994 C.3       1 MOL        -0.1379
      2 C2          1.2109   -0.9764    1.4719 C.3       1 MOL         0.1479
      3 N1          2.3152   -1.2363    0.5901 N.3       1 MOL        -0.9044
      4 H1         -0.4330    0.3816    1.6745 H         1 MOL         0.0359
      5 H2          1.0285    1.0868    0.9276 H         1 MOL         0.0359
      6 H3         -0.0006   -0.0231    0.0036 H         1 MOL         0.0359
      7 H4          0.5936   -1.8790    1.5087 H         1 MOL         0.0509
      8 H5          1.6184   -0.7872    2.4694 H         1 MOL         0.0509
      9 H6          3.1673   -0.7086    0.6991 H         1 MOL         0.3424
     10 H7          2.1623   -1.7846   -0.2422 H         1 MOL         0.3424
@<TRIPOS>BOND
     1    1    2 1
     2    2    3 1
     3    1    4 1
     4    1    5 1
     5    1    6 1
     6    2    7 1
     7    2    8 1
     8    3    9 1
     9    3   10 1
