@<TRIPOS>MOLECULE
N,N-dimethylbenzamide
   22    22     0     0     0
SMALL
USER_CHARGES

@<TRIPOS>ATOM
      1 C1          0.9454   -0.0479   -0.2111 C.3       1 MOL         0.0830
      2 N1          1.3874    0.6315   -1.4208 N.am      1 MOL        -0.4830
      3 C2          0.7920    0.1554   -2.6675 C.3       1 MOL         0.0830
      4 C3          2.3234    1.6663   -1.3232 C.2       1 MOL         0.6719
      5 O1          2.8288    2.0742   -0.2781 O.2       1 MOL        -0.5912
      6 C4          2.7669    2.3258   -2.5617 C.ar      1 MOL        -0.1278
      7 C5          3.8753    1.8374   -3.2535 C.ar      1 MOL        -0.1002
      8 C6          4.2965    2.4632   -4.4267 C.ar      1 MOL        -0.1321
      9 C7          3.6094    3.5776   -4.9082 C.ar      1 MOL        -0.1178
     10 C8          2.5010    4.0660   -4.2163 C.ar      1 MOL        -0.1321
     11 C9          2.0798    3.4402   -3.0430 C.ar      1 MOL        -0.1002
     12 H1          1.5930   -0.9036   -0.0029 H         1 MOL         0.0426
     13 H2         -0.0811   -0.4045   -0.3315 H         1 MOL         0.0426
     14 H3          0.9811    0.6361    0.6411 H         1 MOL         0.0426
     15 H4         -0.1128    0.7212   -2.8636 H         1 MOL         0.0426
     16 H5          0.5554   -0.8990   -2.5667 H         1 MOL         0.0426
     17 H6          1.5016    0.2990   -3.4760 H         1 MOL         0.0426
     18 H7          4.4184    0.9700   -2.8871 H         1 MOL         0.1420
     19 H8          5.1592    2.0827   -4.9657 H         1 MOL         0.1365
     20 H9          3.9369    4.0652   -5.8216 H         1 MOL         0.1343
     21 H10         1.9668    4.9341   -4.5913 H         1 MOL         0.1365
     22 H11         1.2144    3.8292   -2.5126 H         1 MOL         0.1420
@<TRIPOS>BOND
     1    1    2 1
     2    2    3 1
     3    2    4 am
     4    4    5 2
     5    4    6 1
     6    6   11 ar
     7    6    7 ar
     8    7    8 ar
     9    8    9 ar
    10    9   10 ar
    11   10   11 ar
    12    1   12 1
    13    1   13 1
    14    1   14 1
    15    3   15 1
    16    3   16 1
    17    3   17 1
    18    7   18 1
    19    8   19 1
    20    9   20 1
    21   10   21 1
    22   11   22 1
