@<TRIPOS>MOLECULE
2-methoxyaniline
   18    18     0     0     0
SMALL
USER_CHARGES

@<TRIPOS>ATOM
      1 C1          1.3610   -2.1336   -2.1494 C.3       1 MOL         0.1160
      2 O1          1.9458   -1.0263   -1.4741 O.3       1 MOL        -0.3527
      3 C2          1.8851   -1.0363   -0.1124 C.ar      1 MOL         0.0261
      4 C3          2.9210   -1.6309    0.6081 C.ar      1 MOL        -0.1027
      5 C4          2.8783   -1.6520    2.0022 C.ar      1 MOL        -0.1643
      6 C5          1.7997   -1.0786    2.6757 C.ar      1 MOL        -0.0983
      7 C6          0.7638   -0.4841    1.9551 C.ar      1 MOL        -0.1862
      8 C7          0.8066   -0.4630    0.5610 C.ar      1 MOL         0.1290
      9 N1         -0.2490    0.1417   -0.1556 N.pl3     1 MOL        -0.8129
     10 H1          1.4757   -2.0052   -3.2285 H         1 MOL         0.0400
     11 H2          0.3014   -2.2014   -1.8903 H         1 MOL         0.0400
     12 H3          1.8695   -3.0490   -1.8377 H         1 MOL         0.0400
     13 H4          3.7644   -2.0791    0.0899 H         1 MOL         0.1418
     14 H5          3.6852   -2.1142    2.5632 H         1 MOL         0.1339
     15 H6          1.7668   -1.0946    3.7611 H         1 MOL         0.1306
     16 H7         -0.0716   -0.0403    2.4906 H         1 MOL         0.1325
     17 H8         -0.1919    0.1966   -1.1517 H         1 MOL         0.3936
     18 H9         -0.9873    0.5868    0.3497 H         1 MOL         0.3936
@<TRIPOS>BOND
     1    1    2 1
     2    2    3 1
     3    3    8 ar
     4    3    4 ar
     5    4    5 ar
     6    5    6 ar
     7    6    7 ar
     8    7    8 ar
     9    8    9 1
    10    1   10 1
    11    1   11 1
    12    1   12 1
    13    4   13 1
    14    5   14 1
    15    6   15 1
    16    7   16 1
    17    9   17 1
    18    9   18 1
