@<TRIPOS>MOLECULE
cyclohexene
   16    16     0     0     0
SMALL
USER_CHARGES

@<TRIPOS>ATOM
      1 C1         -0.7647   -1.2385   -0.1625 C.3       1 MOL        -0.0755
      2 C2          0.6909   -1.2572    0.2957 C.3       1 MOL        -0.0755
      3 C3          1.4653   -0.0602   -0.2621 C.3       1 MOL        -0.0486
      4 C4          0.6947    1.2246   -0.1924 C.2       1 MOL        -0.1682
      5 C5         -0.6207    1.2769    0.0589 C.2       1 MOL        -0.1682
      6 C6         -1.4654    0.0545    0.2623 C.3       1 MOL        -0.0486
      7 H1         -1.3007   -2.1010    0.2494 H         1 MOL         0.0402
      8 H2         -0.8010   -1.3331   -1.2555 H         1 MOL         0.0402
      9 H3          0.7252   -1.2374    1.3927 H         1 MOL         0.0402
     10 H4          1.1739   -2.1890   -0.0196 H         1 MOL         0.0402
     11 H5          2.4036    0.0473    0.2935 H         1 MOL         0.0459
     12 H6          1.7312   -0.2470   -1.3094 H         1 MOL         0.0459
     13 H7          1.2422    2.1491   -0.3513 H         1 MOL         0.1200
     14 H8         -1.1122    2.2436    0.1170 H         1 MOL         0.1200
     15 H9         -1.7388   -0.0040    1.3225 H         1 MOL         0.0459
     16 H10        -2.3975    0.1575   -0.3048 H         1 MOL         0.0459
@<TRIPOS>BOND
     1    1    6 1
     2    1    2 1
     3    2    3 1
     4    3    4 1
     5    4    5 2
     6    5    6 1
     7    1    7 1
     8    1    8 1
     9    2    9 1
    10    2   10 1
    11    3   11 1
    12    3   12 1
    13    4   13 1
    14    5   14 1
    15    6   15 1
    16    6   16 1
