@<TRIPOS>MOLECULE
undecan-2-one
   34    33     0     0     0
SMALL
USER_CHARGES

@<TRIPOS>ATOM
      1 C1         -6.7544    2.6185    1.0080 C.3       1 MOL        -0.0923
      2 C2         -5.3339    3.0646    0.6999 C.3       1 MOL        -0.0797
      3 C3         -4.3148    1.9885    1.0767 C.3       1 MOL        -0.0785
      4 C4         -2.8880    2.4436    0.7642 C.3       1 MOL        -0.0784
      5 C5         -1.8227    1.4026    1.1222 C.3       1 MOL        -0.0781
      6 C6         -0.3728    1.8021    0.8316 C.3       1 MOL        -0.0783
      7 C7          0.6446    0.7235    1.2097 C.3       1 MOL        -0.0781
      8 C8          2.0743    1.1784    0.8970 C.3       1 MOL        -0.0748
      9 C9          3.1149    0.1216    1.2638 C.3       1 MOL        -0.1824
     10 C10         4.5455    0.5401    0.9666 C.2       1 MOL         0.5647
     11 O1          4.8353    1.6300    0.4760 O.2       1 MOL        -0.5308
     12 C11         5.6170   -0.4519    1.3387 C.3       1 MOL        -0.2057
     13 H1         -7.4768    3.3946    0.7352 H         1 MOL         0.0326
     14 H2         -7.0069    1.7056    0.4592 H         1 MOL         0.0326
     15 H3         -6.8636    2.4132    2.0775 H         1 MOL         0.0326
     16 H4         -5.1198    3.9888    1.2495 H         1 MOL         0.0386
     17 H5         -5.2540    3.2961   -0.3686 H         1 MOL         0.0386
     18 H6         -4.4121    1.7632    2.1447 H         1 MOL         0.0385
     19 H7         -4.5348    1.0652    0.5274 H         1 MOL         0.0385
     20 H8         -2.8063    2.6551   -0.3096 H         1 MOL         0.0395
     21 H9         -2.6778    3.3886    1.2781 H         1 MOL         0.0395
     22 H10        -2.0498    0.4758    0.5805 H         1 MOL         0.0382
     23 H11        -1.9072    1.1626    2.1895 H         1 MOL         0.0382
     24 H12        -0.2607    2.0646   -0.2266 H         1 MOL         0.0419
     25 H13        -0.1539    2.7160    1.3984 H         1 MOL         0.0419
     26 H14         0.4262   -0.2002    0.6642 H         1 MOL         0.0373
     27 H15         0.5583    0.4969    2.2792 H         1 MOL         0.0373
     28 H16         2.2887    2.0890    1.4698 H         1 MOL         0.0550
     29 H17         2.1581    1.4421   -0.1641 H         1 MOL         0.0550
     30 H18         3.0587   -0.0779    2.3400 H         1 MOL         0.0638
     31 H19         2.9049   -0.8130    0.7322 H         1 MOL         0.0638
     32 H20         5.8079   -1.1188    0.4943 H         1 MOL         0.0629
     33 H21         5.2870   -1.0487    2.1936 H         1 MOL         0.0629
     34 H22         6.5303    0.0819    1.6130 H         1 MOL         0.0629
@<TRIPOS>BOND
     1    1    2 1
     2    2    3 1
     3    3    4 1
     4    4    5 1
     5    5    6 1
     6    6    7 1
     7    7    8 1
     8    8    9 1
     9    9   10 1
    10   10   11 2
    11   10   12 1
    12    1   13 1
    13    1   14 1
    14    1   15 1
    15    2   16 1
    16    2   17 1
    17    3   18 1
    18    3   19 1
    19    4   20 1
    20    4   21 1
    21    5   22 1
    22    5   23 1
    23    6   24 1
    24    6   25 1
    25    7   26 1
    26    7   27 1
    27    8   28 1
    28    8   29 1
    29    9   30 1
    30    9   31 1
    31   12   32 1
    32   12   33 1
    33   12   34 1
