@<TRIPOS>MOLECULE
(2S)-1,2-dichloropropane
   11    10     0     0     0
SMALL
USER_CHARGES

@<TRIPOS>ATOM
      1 C1          0.8719   -0.5290    0.4006 C.3       1 MOL        -0.1052
      2 C2          1.2565    0.0257    1.7670 C.3       1 MOL         0.0483
      3 H1          1.3857    1.1097    1.6751 H         1 MOL         0.0750
      4 C3          0.2164   -0.2402    2.8566 C.3       1 MOL         0.0224
      5 Cl1        -0.0992   -1.9708    3.1383 Cl        1 MOL        -0.1714
      6 Cl2         2.8548   -0.6173    2.2521 Cl        1 MOL        -0.1848
      7 H2          0.7259   -1.6139    0.4186 H         1 MOL         0.0552
      8 H3         -0.0613   -0.0759    0.0481 H         1 MOL         0.0552
      9 H4          1.6476   -0.3036   -0.3389 H         1 MOL         0.0552
     10 H5          0.5511    0.1827    3.8093 H         1 MOL         0.0750
     11 H6         -0.7401    0.2287    2.6036 H         1 MOL         0.0750
@<TRIPOS>BOND
     1    1    2 1
     2    2    3 1
     3    2    4 1
     4    4    5 1
     5    2    6 1
     6    1    7 1
     7    1    8 1
     8    1    9 1
     9    4   10 1
    10    4   11 1
