@<TRIPOS>MOLECULE
methylsulfanylmethane
    9     8     0     0     0
SMALL
USER_CHARGES

@<TRIPOS>ATOM
      1 C1          0.9856   -0.3289    0.3401 C.3       1 MOL        -0.0465
      2 S1          1.2245    0.1824    2.0582 S.3       1 MOL        -0.2769
      3 C2          2.8855   -0.4869    2.3101 C.3       1 MOL        -0.0465
      4 H1          0.0025   -0.0056   -0.0107 H         1 MOL         0.0617
      5 H2          1.0509   -1.4171    0.2643 H         1 MOL         0.0617
      6 H3          1.7559    0.1203   -0.2914 H         1 MOL         0.0617
      7 H4          3.2180   -0.2717    3.3270 H         1 MOL         0.0617
      8 H5          3.5770   -0.0287    1.6010 H         1 MOL         0.0617
      9 H6          2.8731   -1.5670    2.1555 H         1 MOL         0.0617
@<TRIPOS>BOND
     1    1    2 1
     2    2    3 1
     3    1    4 1
     4    1    5 1
     5    1    6 1
     6    3    7 1
     7    3    8 1
     8    3    9 1
