@<TRIPOS>MOLECULE
N2-ethyl-N4-isopropyl-6-methylsulfanyl-1,3,5-triazine-2,4-diamine
   32    32     0     0     0
SMALL
USER_CHARGES

@<TRIPOS>ATOM
      1 C1         -1.5392   -1.5577   -4.8539 C.3       1 MOL        -0.1292
      2 C2         -0.3284   -2.1382   -4.2061 C.3       1 MOL         0.1986
      3 N1         -0.1517   -1.6177   -2.8712 N.pl3     1 MOL        -0.8166
      4 C3          0.9114   -1.9893   -2.0194 C.ar      1 MOL         0.9044
      5 N2          0.9395   -1.4174   -0.8047 N.ar      1 MOL        -0.8222
      6 C4          1.9762   -1.8179   -0.0513 C.ar      1 MOL         0.9173
      7 N3          2.9298   -2.6957   -0.4023 N.ar      1 MOL        -0.7764
      8 C5          2.7732   -3.1848   -1.6429 C.ar      1 MOL         0.7980
      9 N4          1.7916   -2.8788   -2.5066 N.ar      1 MOL        -0.8067
     10 S1          3.9907   -4.3588   -2.2003 S.3       1 MOL        -0.2485
     11 C6          5.4234   -3.7752   -1.2675 C.3       1 MOL        -0.0646
     12 N5          2.0725   -1.2697    1.2178 N.pl3     1 MOL        -0.8442
     13 C7          3.1530   -1.6016    2.1781 C.3       1 MOL         0.2314
     14 C8          2.6163   -1.4727    3.5963 C.3       1 MOL        -0.1166
     15 C9          4.3316   -0.6702    1.9350 C.3       1 MOL        -0.1166
     16 H1         -1.6694   -1.9554   -5.8663 H         1 MOL         0.0453
     17 H2         -2.4374   -1.7706   -4.2641 H         1 MOL         0.0453
     18 H3         -1.4339   -0.4688   -4.9296 H         1 MOL         0.0453
     19 H4          0.5692   -1.8930   -4.7817 H         1 MOL         0.0601
     20 H5         -0.4126   -3.2264   -4.1310 H         1 MOL         0.0601
     21 H6         -0.8290   -0.9463   -2.5270 H         1 MOL         0.4233
     22 H7          6.2904   -4.3994   -1.4932 H         1 MOL         0.0730
     23 H8          5.2130   -3.8277   -0.1973 H         1 MOL         0.0730
     24 H9          5.6445   -2.7411   -1.5399 H         1 MOL         0.0730
     25 H10         1.3639   -0.6049    1.5074 H         1 MOL         0.4398
     26 H11         3.4621   -2.6365    1.9952 H         1 MOL         0.0735
     27 H12         3.3926   -1.7120    4.3303 H         1 MOL         0.0467
     28 H13         2.2577   -0.4570    3.7975 H         1 MOL         0.0467
     29 H14         1.7753   -2.1562    3.7571 H         1 MOL         0.0467
     30 H15         5.1495   -0.8895    2.6301 H         1 MOL         0.0467
     31 H16         4.0380    0.3751    2.0760 H         1 MOL         0.0467
     32 H17         4.7255   -0.7799    0.9184 H         1 MOL         0.0467
@<TRIPOS>BOND
     1    1    2 1
     2    2    3 1
     3    3    4 1
     4    4    9 ar
     5    4    5 ar
     6    5    6 ar
     7    6    7 ar
     8    7    8 ar
     9    8    9 ar
    10    8   10 1
    11   10   11 1
    12    6   12 1
    13   12   13 1
    14   13   14 1
    15   13   15 1
    16    1   16 1
    17    1   17 1
    18    1   18 1
    19    2   19 1
    20    2   20 1
    21    3   21 1
    22   11   22 1
    23   11   23 1
    24   11   24 1
    25   12   25 1
    26   13   26 1
    27   14   27 1
    28   14   28 1
    29   14   29 1
    30   15   30 1
    31   15   31 1
    32   15   32 1
