@<TRIPOS>MOLECULE
N-(3,4-dichlorophenyl)propanamide
   22    22     0     0     0
SMALL
USER_CHARGES

@<TRIPOS>ATOM
      1 C1         -0.6157   -0.8901   -0.1616 C.3       1 MOL        -0.0864
      2 C2         -1.0339   -0.9864   -1.6179 C.3       1 MOL        -0.1575
      3 C3         -1.8948   -2.2080   -1.9032 C.2       1 MOL         0.6722
      4 O1         -2.1990   -3.0088   -1.0253 O.2       1 MOL        -0.5756
      5 N1         -2.2508   -2.2512   -3.2482 N.am      1 MOL        -0.4779
      6 C4         -3.0418   -3.2268   -3.9003 C.ar      1 MOL         0.0857
      7 C5         -3.5613   -4.3003   -3.1769 C.ar      1 MOL        -0.1536
      8 C6         -4.3415   -5.2618   -3.8192 C.ar      1 MOL        -0.0895
      9 C7         -4.6020   -5.1498   -5.1849 C.ar      1 MOL        -0.0146
     10 C8         -4.0824   -4.0763   -5.9083 C.ar      1 MOL         0.0490
     11 C9         -3.3023   -3.1148   -5.2660 C.ar      1 MOL        -0.1836
     12 Cl1        -4.3710   -3.8820   -7.6020 Cl        1 MOL        -0.0727
     13 Cl2        -5.5771   -6.3717   -5.9225 Cl        1 MOL        -0.0713
     14 H1          0.0016   -0.0027    0.0124 H         1 MOL         0.0489
     15 H2         -0.0359   -1.7721    0.1275 H         1 MOL         0.0489
     16 H3         -1.4897   -0.8250    0.4948 H         1 MOL         0.0489
     17 H4         -0.1411   -1.0348   -2.2520 H         1 MOL         0.0635
     18 H5         -1.5997   -0.0898   -1.8959 H         1 MOL         0.0635
     19 H6         -1.9015   -1.4928   -3.8304 H         1 MOL         0.3182
     20 H7         -3.3649   -4.3962   -2.1121 H         1 MOL         0.1827
     21 H8         -4.7398   -6.0903   -3.2389 H         1 MOL         0.1542
     22 H9         -2.8939   -2.2754   -5.8254 H         1 MOL         0.1469
@<TRIPOS>BOND
     1    1    2 1
     2    2    3 1
     3    3    4 2
     4    3    5 am
     5    5    6 1
     6    6   11 ar
     7    6    7 ar
     8    7    8 ar
     9    8    9 ar
    10    9   10 ar
    11   10   11 ar
    12   10   12 1
    13    9   13 1
    14    1   14 1
    15    1   15 1
    16    1   16 1
    17    2   17 1
    18    2   18 1
    19    5   19 1
    20    7   20 1
    21    8   21 1
    22   11   22 1
