@<TRIPOS>MOLECULE
2,2-dimethylbutane
   20    19     0     0     0
SMALL
USER_CHARGES

@<TRIPOS>ATOM
      1 C1         -0.7779    2.0416   -1.2635 C.3       1 MOL        -0.0921
      2 C2          0.6586    1.9008   -0.7747 C.3       1 MOL        -0.0705
      3 C3          1.7374    2.6049   -1.6377 C.3       1 MOL        -0.0557
      4 C4          1.4191    4.1125   -1.6700 C.3       1 MOL        -0.0856
      5 C5          1.7283    2.0728   -3.0804 C.3       1 MOL        -0.0856
      6 C6          3.1401    2.4150   -1.0370 C.3       1 MOL        -0.0856
      7 H1         -1.4812    1.5211   -0.6075 H         1 MOL         0.0330
      8 H2         -1.0620    3.0992   -1.2753 H         1 MOL         0.0330
      9 H3         -0.8983    1.6591   -2.2808 H         1 MOL         0.0330
     10 H4          0.8909    0.8298   -0.7080 H         1 MOL         0.0374
     11 H5          0.7073    2.2881    0.2516 H         1 MOL         0.0374
     12 H6          2.1552    4.6595   -2.2699 H         1 MOL         0.0335
     13 H7          1.4255    4.5402   -0.6609 H         1 MOL         0.0335
     14 H8          0.4307    4.3013   -2.1042 H         1 MOL         0.0335
     15 H9          2.4867    2.5635   -3.6989 H         1 MOL         0.0335
     16 H10         1.9191    0.9942   -3.1048 H         1 MOL         0.0335
     17 H11         0.7580    2.2491   -3.5589 H         1 MOL         0.0335
     18 H12         3.9018    2.9128   -1.6474 H         1 MOL         0.0335
     19 H13         3.4032    1.3524   -0.9794 H         1 MOL         0.0335
     20 H14         3.2049    2.8187   -0.0213 H         1 MOL         0.0335
@<TRIPOS>BOND
     1    1    2 1
     2    2    3 1
     3    3    4 1
     4    3    5 1
     5    3    6 1
     6    1    7 1
     7    1    8 1
     8    1    9 1
     9    2   10 1
    10    2   11 1
    11    4   12 1
    12    4   13 1
    13    4   14 1
    14    5   15 1
    15    5   16 1
    16    5   17 1
    17    6   18 1
    18    6   19 1
    19    6   20 1
