@<TRIPOS>MOLECULE
(E)-oct-2-enal
   23    22     0     0     0
SMALL
USER_CHARGES

@<TRIPOS>ATOM
      1 C1         -2.2861   -0.6809   -2.6468 C.3       1 MOL        -0.0921
      2 C2         -0.8532   -0.2728   -2.3432 C.3       1 MOL        -0.0792
      3 C3         -0.7155    0.2749   -0.9220 C.3       1 MOL        -0.0784
      4 C4          0.7301    0.6837   -0.6238 C.3       1 MOL        -0.0775
      5 C5          0.9274    1.2411    0.7899 C.3       1 MOL        -0.0638
      6 C6          2.3460    1.6414    1.0804 C.2       1 MOL        -0.0876
      7 C7          2.7039    2.8880    1.4115 C.2       1 MOL        -0.2740
      8 C8          4.1235    3.1784    1.6888 C.2       1 MOL         0.5583
      9 O1          4.5069    4.3007    1.9961 O.2       1 MOL        -0.5262
     10 H1         -2.3755   -1.0716   -3.6655 H         1 MOL         0.0340
     11 H2         -2.9537    0.1815   -2.5538 H         1 MOL         0.0340
     12 H3         -2.6298   -1.4529   -1.9509 H         1 MOL         0.0340
     13 H4         -0.5351    0.4858   -3.0678 H         1 MOL         0.0388
     14 H5         -0.1967   -1.1411   -2.4726 H         1 MOL         0.0388
     15 H6         -1.3756    1.1421   -0.7976 H         1 MOL         0.0405
     16 H7         -1.0459   -0.4896   -0.2096 H         1 MOL         0.0405
     17 H8          1.3965   -0.1738   -0.7810 H         1 MOL         0.0431
     18 H9          1.0360    1.4562   -1.3406 H         1 MOL         0.0431
     19 H10         0.6134    0.4961    1.5310 H         1 MOL         0.0561
     20 H11         0.2598    2.1025    0.9174 H         1 MOL         0.0561
     21 H12         3.0955    0.8555    1.0292 H         1 MOL         0.1212
     22 H13         1.9915    3.7010    1.4832 H         1 MOL         0.1481
     23 H14         4.8223    2.3295    1.6038 H         1 MOL        -0.0079
@<TRIPOS>BOND
     1    1    2 1
     2    2    3 1
     3    3    4 1
     4    4    5 1
     5    5    6 1
     6    6    7 2
     7    7    8 1
     8    8    9 2
     9    1   10 1
    10    1   11 1
    11    1   12 1
    12    2   13 1
    13    2   14 1
    14    3   15 1
    15    3   16 1
    16    4   17 1
    17    4   18 1
    18    5   19 1
    19    5   20 1
    20    6   21 1
    21    7   22 1
    22    8   23 1
