@<TRIPOS>MOLECULE
1,2,3,4,6,7,8,9-octachlorodibenzo-p-dioxin
   22    24     0     0     0
SMALL
USER_CHARGES

@<TRIPOS>ATOM
      1 C1         -2.7266   -1.9051    0.6889 C.ar      1 MOL         0.0793
      2 C2         -3.5799   -0.9097    1.1626 C.ar      1 MOL         0.0794
      3 C3         -3.1487    0.4152    1.2196 C.ar      1 MOL         0.0322
      4 C4         -1.8584    0.7400    0.8000 C.ar      1 MOL         0.0221
      5 C5         -1.0039   -0.2568    0.3257 C.ar      1 MOL         0.0221
      6 C6         -1.4367   -1.5819    0.2693 C.ar      1 MOL         0.0322
      7 Cl1        -0.4028   -2.8502   -0.3162 Cl        1 MOL        -0.0143
      8 Cl2         0.6077    0.1472   -0.1988 Cl        1 MOL        -0.0250
      9 Cl3        -1.3195    2.3954    0.8706 Cl        1 MOL        -0.0250
     10 Cl4        -4.2410    1.6281    1.8158 Cl        1 MOL        -0.0143
     11 O1         -4.8561   -1.1828    1.5855 O.3       1 MOL        -0.1887
     12 C7         -5.2389   -2.4982    1.5123 C.ar      1 MOL         0.0794
     13 C8         -4.3856   -3.4936    1.0385 C.ar      1 MOL         0.0794
     14 C9         -4.8168   -4.8184    0.9815 C.ar      1 MOL         0.0322
     15 C10        -6.1071   -5.1433    1.4010 C.ar      1 MOL         0.0221
     16 C11        -6.9616   -4.1465    1.8755 C.ar      1 MOL         0.0221
     17 C12        -6.5287   -2.8214    1.9320 C.ar      1 MOL         0.0322
     18 Cl5        -7.5636   -1.5529    2.5161 Cl        1 MOL        -0.0143
     19 Cl6        -8.5732   -4.5507    2.3999 Cl        1 MOL        -0.0250
     20 Cl7        -6.6460   -6.7986    1.3301 Cl        1 MOL        -0.0250
     21 Cl8        -3.7244   -6.0317    0.3851 Cl        1 MOL        -0.0143
     22 O2         -3.1093   -3.2205    0.6157 O.3       1 MOL        -0.1887
@<TRIPOS>BOND
     1    1    6 ar
     2    1   22 1
     3    1    2 ar
     4    2    3 ar
     5    3    4 ar
     6    4    5 ar
     7    5    6 ar
     8    6    7 1
     9    5    8 1
    10    4    9 1
    11    3   10 1
    12    2   11 1
    13   11   12 1
    14   12   17 ar
    15   12   13 ar
    16   13   14 ar
    17   14   15 ar
    18   15   16 ar
    19   16   17 ar
    20   17   18 1
    21   16   19 1
    22   15   20 1
    23   14   21 1
    24   13   22 1
