@<TRIPOS>MOLECULE
nonan-2-one
   28    27     0     0     0
SMALL
USER_CHARGES

@<TRIPOS>ATOM
      1 C1          1.0908    3.4360    2.8350 C.3       1 MOL        -0.0920
      2 C2          0.5297    2.0332    2.6653 C.3       1 MOL        -0.0800
      3 C3          0.7521    1.5088    1.2470 C.3       1 MOL        -0.0784
      4 C4          0.1862    0.0975    1.0805 C.3       1 MOL        -0.0782
      5 C5          0.4088   -0.4274   -0.3393 C.3       1 MOL        -0.0770
      6 C6         -0.1583   -1.8402   -0.5037 C.3       1 MOL        -0.0753
      7 C7          0.0481   -2.3927   -1.9106 C.3       1 MOL        -0.1811
      8 C8         -0.5094   -3.7910   -2.0854 C.2       1 MOL         0.5637
      9 O1         -1.0633   -4.3781   -1.1557 O.2       1 MOL        -0.5319
     10 C9         -0.3458   -4.4427   -3.4334 C.3       1 MOL        -0.2049
     11 H1          0.9272    3.8034    3.8531 H         1 MOL         0.0328
     12 H2          0.6182    4.1346    2.1371 H         1 MOL         0.0328
     13 H3          2.1680    3.4392    2.6417 H         1 MOL         0.0328
     14 H4          1.0093    1.3642    3.3893 H         1 MOL         0.0387
     15 H5         -0.5423    2.0446    2.8945 H         1 MOL         0.0387
     16 H6          0.2740    2.1837    0.5266 H         1 MOL         0.0379
     17 H7          1.8254    1.5034    1.0214 H         1 MOL         0.0379
     18 H8          0.6646   -0.5771    1.8009 H         1 MOL         0.0416
     19 H9         -0.8872    0.1032    1.3058 H         1 MOL         0.0416
     20 H10        -0.0677    0.2524   -1.0553 H         1 MOL         0.0373
     21 H11         1.4824   -0.4341   -0.5637 H         1 MOL         0.0373
     22 H12         0.3387   -2.5111    0.2076 H         1 MOL         0.0548
     23 H13        -1.2240   -1.8405   -0.2474 H         1 MOL         0.0548
     24 H14        -0.4198   -1.7358   -2.6530 H         1 MOL         0.0639
     25 H15         1.1171   -2.4267   -2.1495 H         1 MOL         0.0639
     26 H16         0.5961   -4.9981   -3.4587 H         1 MOL         0.0628
     27 H17        -0.3304   -3.6806   -4.2156 H         1 MOL         0.0628
     28 H18        -1.1649   -5.1454   -3.6059 H         1 MOL         0.0628
@<TRIPOS>BOND
     1    1    2 1
     2    2    3 1
     3    3    4 1
     4    4    5 1
     5    5    6 1
     6    6    7 1
     7    7    8 1
     8    8    9 2
     9    8   10 1
    10    1   11 1
    11    1   12 1
    12    1   13 1
    13    2   14 1
    14    2   15 1
    15    3   16 1
    16    3   17 1
    17    4   18 1
    18    4   19 1
    19    5   20 1
    20    5   21 1
    21    6   22 1
    22    6   23 1
    23    7   24 1
    24    7   25 1
    25   10   26 1
    26   10   27 1
    27   10   28 1
