@<TRIPOS>MOLECULE
isobutyl formate
   17    16     0     0     0
SMALL
USER_CHARGES

@<TRIPOS>ATOM
      1 C1          0.9983   -0.3578   -0.2742 C.3       1 MOL        -0.0919
      2 C2          1.8182    0.7470   -0.9439 C.3       1 MOL        -0.0700
      3 C3          1.1578    1.1798   -2.2511 C.3       1 MOL        -0.0919
      4 C4          1.9991    1.9493   -0.0132 C.3       1 MOL         0.1367
      5 O1          2.6754    1.5475    1.1709 O.3       1 MOL        -0.4485
      6 C5          2.8988    2.5317    2.0856 C.2       1 MOL         0.6294
      7 O2          2.5838    3.7082    1.9978 O.2       1 MOL        -0.5408
      8 H1          1.4668   -0.6730    0.6644 H         1 MOL         0.0386
      9 H2          0.9144   -1.2373   -0.9218 H         1 MOL         0.0386
     10 H3         -0.0135   -0.0122   -0.0385 H         1 MOL         0.0386
     11 H4          2.8075    0.3294   -1.1709 H         1 MOL         0.0612
     12 H5          1.7384    1.9708   -2.7374 H         1 MOL         0.0386
     13 H6          0.1511    1.5698   -2.0675 H         1 MOL         0.0386
     14 H7          1.0744    0.3418   -2.9516 H         1 MOL         0.0386
     15 H8          2.6000    2.7249   -0.4995 H         1 MOL         0.0525
     16 H9          1.0323    2.3812    0.2672 H         1 MOL         0.0525
     17 H10         3.4243    2.0994    2.9511 H         1 MOL         0.0794
@<TRIPOS>BOND
     1    1    2 1
     2    2    3 1
     3    2    4 1
     4    4    5 1
     5    5    6 1
     6    6    7 2
     7    1    8 1
     8    1    9 1
     9    1   10 1
    10    2   11 1
    11    3   12 1
    12    3   13 1
    13    3   14 1
    14    4   15 1
    15    4   16 1
    16    6   17 1
