@<TRIPOS>MOLECULE
hexa-1,5-diene
   16    15     0     0     0
SMALL
USER_CHARGES

@<TRIPOS>ATOM
      1 C1          0.1196    0.8573   -2.2205 C.2       1 MOL        -0.2225
      2 C2         -0.6068    0.9283   -1.0995 C.2       1 MOL        -0.1635
      3 C3         -2.0841    0.6652   -1.0382 C.3       1 MOL        -0.0500
      4 C4         -2.8794    1.8751   -0.5367 C.3       1 MOL        -0.0500
      5 C5         -2.7082    3.0838   -1.4114 C.2       1 MOL        -0.1635
      6 C6         -2.2084    4.2495   -0.9865 C.2       1 MOL        -0.2225
      7 H1          1.1857    1.0555   -2.2193 H         1 MOL         0.1109
      8 H2         -0.3491    0.5958   -3.1628 H         1 MOL         0.1109
      9 H3         -0.1057    1.1814   -0.1687 H         1 MOL         0.1190
     10 H4         -2.2480   -0.1722   -0.3488 H         1 MOL         0.0476
     11 H5         -2.4669    0.3432   -2.0150 H         1 MOL         0.0476
     12 H6         -2.6058    2.0996    0.5020 H         1 MOL         0.0476
     13 H7         -3.9451    1.6150   -0.5280 H         1 MOL         0.0476
     14 H8         -3.0224    2.9984   -2.4484 H         1 MOL         0.1190
     15 H9         -2.1021    5.0980   -1.6532 H         1 MOL         0.1109
     16 H10        -1.8973    4.3703    0.0454 H         1 MOL         0.1109
@<TRIPOS>BOND
     1    1    2 2
     2    2    3 1
     3    3    4 1
     4    4    5 1
     5    5    6 2
     6    1    7 1
     7    1    8 1
     8    2    9 1
     9    3   10 1
    10    3   11 1
    11    4   12 1
    12    4   13 1
    13    5   14 1
    14    6   15 1
    15    6   16 1
