@<TRIPOS>MOLECULE
5-bromo-1H-pyrimidine-2,4-dione
   12    12     0     0     0
SMALL
USER_CHARGES

@<TRIPOS>ATOM
      1 C1          0.7469    1.3015   -0.1109 C.2       1 MOL         0.0808
      2 C2         -0.2265    0.9655    0.7428 C.2       1 MOL        -0.2463
      3 C3         -0.8159   -0.4016    0.6527 C.2       1 MOL         0.7265
      4 O1         -1.7123   -0.7774    1.4035 O.2       1 MOL        -0.5814
      5 N1         -0.2702   -1.2046   -0.3427 N.am      1 MOL        -0.5833
      6 C4          0.7469   -0.8471   -1.2308 C.2       1 MOL         0.8021
      7 O2          1.1809   -1.6156   -2.0894 O.2       1 MOL        -0.6266
      8 N2          1.2243    0.4429   -1.0629 N.am      1 MOL        -0.4637
      9 Br1        -0.8740    2.1363    2.0377 Br        1 MOL        -0.0016
     10 H1          1.2195    2.2773   -0.1039 H         1 MOL         0.1739
     11 H2         -0.6471   -2.1440   -0.4327 H         1 MOL         0.3592
     12 H3          1.9654    0.7671   -1.6772 H         1 MOL         0.3604
@<TRIPOS>BOND
     1    1    8 1
     2    1    2 2
     3    2    3 1
     4    3    4 2
     5    3    5 am
     6    5    6 am
     7    6    7 2
     8    6    8 am
     9    2    9 1
    10    1   10 1
    11    5   11 1
    12    8   12 1
