@<TRIPOS>MOLECULE
3-chlorophenol
   13    13     0     0     0
SMALL
USER_CHARGES

@<TRIPOS>ATOM
      1 C1          1.8851   -1.0363   -0.1124 C.ar      1 MOL        -0.0822
      2 C2          2.9210   -1.6309    0.6081 C.ar      1 MOL        -0.2153
      3 C3          2.8783   -1.6520    2.0022 C.ar      1 MOL         0.1340
      4 C4          1.7997   -1.0786    2.6757 C.ar      1 MOL        -0.1537
      5 C5          0.7638   -0.4841    1.9551 C.ar      1 MOL         0.0495
      6 C6          0.8066   -0.4630    0.5610 C.ar      1 MOL        -0.1606
      7 Cl1        -0.5674    0.2235    2.7847 Cl        1 MOL        -0.0895
      8 O1          3.8892   -2.2319    2.7052 O.3       1 MOL        -0.4937
      9 H1          1.9186   -1.0202   -1.1979 H         1 MOL         0.1402
     10 H2          3.7588   -2.0756    0.0780 H         1 MOL         0.1352
     11 H3          1.7743   -1.0986    3.7627 H         1 MOL         0.1653
     12 H4          0.0070   -0.0024   -0.0137 H         1 MOL         0.1489
     13 H5          4.5616   -2.5831    2.0999 H         1 MOL         0.4217
@<TRIPOS>BOND
     1    1    6 ar
     2    1    2 ar
     3    2    3 ar
     4    3    4 ar
     5    4    5 ar
     6    5    6 ar
     7    5    7 1
     8    3    8 1
     9    1    9 1
    10    2   10 1
    11    4   11 1
    12    6   12 1
    13    8   13 1
