@<TRIPOS>MOLECULE
1-phenylvinylbenzene
   26    27     0     0     0
SMALL
USER_CHARGES

@<TRIPOS>ATOM
      1 C1          2.0250   -2.1890   -2.2174 C.2       1 MOL        -0.1992
      2 C2          1.9297   -1.0142   -1.5660 C.2       1 MOL        -0.0166
      3 C3          1.8952    0.2076   -2.3543 C.ar      1 MOL        -0.0529
      4 C4          0.7944    1.0603   -2.2716 C.ar      1 MOL        -0.1161
      5 C5          0.7614    2.2320   -3.0275 C.ar      1 MOL        -0.1319
      6 C6          1.8293    2.5511   -3.8663 C.ar      1 MOL        -0.1278
      7 C7          2.9301    1.6984   -3.9491 C.ar      1 MOL        -0.1319
      8 C8          2.9630    0.5267   -3.1931 C.ar      1 MOL        -0.1161
      9 C9          1.8649   -1.0394   -0.0827 C.ar      1 MOL        -0.0529
     10 C10         2.8436   -0.3894    0.6693 C.ar      1 MOL        -0.1161
     11 C11         2.7827   -0.4130    2.0626 C.ar      1 MOL        -0.1319
     12 C12         1.7432   -1.0866    2.7040 C.ar      1 MOL        -0.1278
     13 C13         0.7646   -1.7366    1.9520 C.ar      1 MOL        -0.1319
     14 C14         0.8254   -1.7130    0.5586 C.ar      1 MOL        -0.1161
     15 H1          2.0556   -3.1394   -1.6924 H         1 MOL         0.1193
     16 H2          2.0756   -2.2457   -3.3011 H         1 MOL         0.1193
     17 H3         -0.0457    0.8252   -1.6223 H         1 MOL         0.1359
     18 H4         -0.0957    2.8960   -2.9633 H         1 MOL         0.1314
     19 H5          1.8036    3.4635   -4.4550 H         1 MOL         0.1309
     20 H6          3.7615    1.9471   -4.6021 H         1 MOL         0.1314
     21 H7          3.8280   -0.1279   -3.2685 H         1 MOL         0.1359
     22 H8          3.6601    0.1399    0.1839 H         1 MOL         0.1359
     23 H9          3.5448    0.0928    2.6483 H         1 MOL         0.1314
     24 H10         1.6958   -1.1051    3.7889 H         1 MOL         0.1309
     25 H11        -0.0449   -2.2609    2.4514 H         1 MOL         0.1314
     26 H12         0.0552   -2.2243   -0.0138 H         1 MOL         0.1359
@<TRIPOS>BOND
     1    1    2 2
     2    2    3 1
     3    3    8 ar
     4    3    4 ar
     5    4    5 ar
     6    5    6 ar
     7    6    7 ar
     8    7    8 ar
     9    2    9 1
    10    9   14 ar
    11    9   10 ar
    12   10   11 ar
    13   11   12 ar
    14   12   13 ar
    15   13   14 ar
    16    1   15 1
    17    1   16 1
    18    4   17 1
    19    5   18 1
    20    6   19 1
    21    7   20 1
    22    8   21 1
    23   10   22 1
    24   11   23 1
    25   12   24 1
    26   13   25 1
    27   14   26 1
