@<TRIPOS>MOLECULE
chloromethane
    5     4     0     0     0
SMALL
USER_CHARGES

@<TRIPOS>ATOM
      1 C1          0.0830   -0.0659   -0.0904 C.3       1 MOL         0.0137
      2 Cl1        -0.9700    0.7711    1.0556 Cl        1 MOL        -0.1890
      3 H1          0.7012    0.6694   -0.6100 H         1 MOL         0.0584
      4 H2          0.7190   -0.7662    0.4554 H         1 MOL         0.0584
      5 H3         -0.5332   -0.6084   -0.8107 H         1 MOL         0.0584
@<TRIPOS>BOND
     1    1    2 1
     2    1    3 1
     3    1    4 1
     4    1    5 1
