@<TRIPOS>MOLECULE
2-methylbut-2-ene
   15    14     0     0     0
SMALL
USER_CHARGES

@<TRIPOS>ATOM
      1 C1         -0.9435   -0.4100    0.3920 C.3       1 MOL        -0.0599
      2 C2         -1.3569    0.2480    1.6461 C.2       1 MOL        -0.1767
      3 C3         -2.4533   -0.0044    2.3864 C.2       1 MOL        -0.1154
      4 C4         -2.7323    0.7616    3.6496 C.3       1 MOL        -0.0608
      5 C5         -3.4775   -1.0459    2.0346 C.3       1 MOL        -0.0608
      6 H1         -1.3486    0.0987   -0.4963 H         1 MOL         0.0396
      7 H2          0.1477   -0.4206    0.2574 H         1 MOL         0.0396
      8 H3         -1.2926   -1.4502    0.3230 H         1 MOL         0.0396
      9 H4         -0.6780    1.0254    1.9917 H         1 MOL         0.1143
     10 H5         -3.3278    1.6534    3.4285 H         1 MOL         0.0401
     11 H6         -3.2895    0.1376    4.3561 H         1 MOL         0.0401
     12 H7         -1.8145    1.0901    4.1485 H         1 MOL         0.0401
     13 H8         -3.2088   -2.0065    2.4865 H         1 MOL         0.0401
     14 H9         -4.4617   -0.7495    2.4120 H         1 MOL         0.0401
     15 H10        -3.5723   -1.2044    0.9566 H         1 MOL         0.0401
@<TRIPOS>BOND
     1    1    2 1
     2    2    3 2
     3    3    4 1
     4    3    5 1
     5    1    6 1
     6    1    7 1
     7    1    8 1
     8    2    9 1
     9    4   10 1
    10    4   11 1
    11    4   12 1
    12    5   13 1
    13    5   14 1
    14    5   15 1
