@<TRIPOS>MOLECULE
octan-1-ol
   27    26     0     0     0
SMALL
USER_CHARGES

@<TRIPOS>ATOM
      1 C1          2.5799    3.1403   -2.3925 C.3       1 MOL        -0.0918
      2 C2          2.1180    1.7399   -2.7628 C.3       1 MOL        -0.0804
      3 C3          0.9803    1.7771   -3.7844 C.3       1 MOL        -0.0788
      4 C4          0.5206    0.3647   -4.1524 C.3       1 MOL        -0.0786
      5 C5         -0.6196    0.3419   -5.1745 C.3       1 MOL        -0.0783
      6 C6         -1.0791   -1.0707   -5.5423 C.3       1 MOL        -0.0782
      7 C7         -2.2156   -1.0345   -6.5629 C.3       1 MOL        -0.0833
      8 C8         -2.6806   -2.4351   -6.9360 C.3       1 MOL         0.1314
      9 O1         -3.7339   -2.3323   -7.8840 O.3       1 MOL        -0.6023
     10 H1          3.3939    3.1045   -1.6612 H         1 MOL         0.0329
     11 H2          1.7584    3.7237   -1.9643 H         1 MOL         0.0329
     12 H3          2.9437    3.6667   -3.2805 H         1 MOL         0.0329
     13 H4          1.7875    1.2188   -1.8567 H         1 MOL         0.0375
     14 H5          2.9667    1.1776   -3.1695 H         1 MOL         0.0375
     15 H6          0.1437    2.3482   -3.3668 H         1 MOL         0.0397
     16 H7          1.3147    2.3024   -4.6871 H         1 MOL         0.0397
     17 H8          0.2135   -0.1727   -3.2469 H         1 MOL         0.0389
     18 H9          1.3686   -0.1885   -4.5751 H         1 MOL         0.0389
     19 H10        -1.4692    0.9198   -4.7908 H         1 MOL         0.0416
     20 H11        -0.2743    0.8533   -6.0817 H         1 MOL         0.0416
     21 H12        -1.4205   -1.6003   -4.6459 H         1 MOL         0.0393
     22 H13        -0.2348   -1.6369   -5.9537 H         1 MOL         0.0393
     23 H14        -1.8955   -0.5056   -7.4693 H         1 MOL         0.0552
     24 H15        -3.0642   -0.4631   -6.1664 H         1 MOL         0.0552
     25 H16        -1.8644   -3.0111   -7.3836 H         1 MOL         0.0194
     26 H17        -3.0544   -2.9699   -6.0570 H         1 MOL         0.0194
     27 H18        -4.0064   -3.2389   -8.1000 H         1 MOL         0.3984
@<TRIPOS>BOND
     1    1    2 1
     2    2    3 1
     3    3    4 1
     4    4    5 1
     5    5    6 1
     6    6    7 1
     7    7    8 1
     8    8    9 1
     9    1   10 1
    10    1   11 1
    11    1   12 1
    12    2   13 1
    13    2   14 1
    14    3   15 1
    15    3   16 1
    16    4   17 1
    17    4   18 1
    18    5   19 1
    19    5   20 1
    20    6   21 1
    21    6   22 1
    22    7   23 1
    23    7   24 1
    24    8   25 1
    25    8   26 1
    26    9   27 1
