@<TRIPOS>MOLECULE
hexanamide
   21    20     0     0     0
SMALL
USER_CHARGES

@<TRIPOS>ATOM
      1 C1          1.0697   -0.0693   -0.2232 C.3       1 MOL        -0.0926
      2 C2          1.4104    0.7803   -1.4372 C.3       1 MOL        -0.0796
      3 C3          2.8894    0.6630   -1.8063 C.3       1 MOL        -0.0790
      4 C4          3.2250    1.5213   -3.0298 C.3       1 MOL        -0.0725
      5 C5          4.6983    1.4241   -3.4225 C.3       1 MOL        -0.1476
      6 C6          5.0628    2.2640   -4.6325 C.2       1 MOL         0.6571
      7 O1          4.2592    2.9453   -5.2623 O.2       1 MOL        -0.6111
      8 N1          6.3969    2.1561   -4.9627 N.am      1 MOL        -0.6858
      9 H1          0.0096    0.0204    0.0340 H         1 MOL         0.0329
     10 H2          1.6577    0.2527    0.6420 H         1 MOL         0.0329
     11 H3          1.2901   -1.1252   -0.4097 H         1 MOL         0.0329
     12 H4          1.1613    1.8265   -1.2251 H         1 MOL         0.0416
     13 H5          0.7890    0.4639   -2.2831 H         1 MOL         0.0416
     14 H6          3.1320   -0.3858   -2.0170 H         1 MOL         0.0365
     15 H7          3.5026    0.9693   -0.9510 H         1 MOL         0.0365
     16 H8          2.9502    2.5658   -2.8390 H         1 MOL         0.0593
     17 H9          2.6173    1.1817   -3.8777 H         1 MOL         0.0593
     18 H10         4.9291    0.3820   -3.6758 H         1 MOL         0.0598
     19 H11         5.3372    1.7076   -2.5778 H         1 MOL         0.0598
     20 H12         6.7811    2.6639   -5.7526 H         1 MOL         0.3091
     21 H13         7.0409    1.5726   -4.4383 H         1 MOL         0.3091
@<TRIPOS>BOND
     1    1    2 1
     2    2    3 1
     3    3    4 1
     4    4    5 1
     5    5    6 1
     6    6    7 2
     7    6    8 am
     8    1    9 1
     9    1   10 1
    10    1   11 1
    11    2   12 1
    12    2   13 1
    13    3   14 1
    14    3   15 1
    15    4   16 1
    16    4   17 1
    17    5   18 1
    18    5   19 1
    19    8   20 1
    20    8   21 1
