@<TRIPOS>MOLECULE
1-propoxypropane
   21    20     0     0     0
SMALL
USER_CHARGES

@<TRIPOS>ATOM
      1 C1         -1.1990   -0.8867    2.8814 C.3       1 MOL        -0.0928
      2 C2          0.1100   -0.6530    3.6139 C.3       1 MOL        -0.0848
      3 C3          1.2749   -1.3494    2.9273 C.3       1 MOL         0.1311
      4 O1          2.4629   -1.0899    3.6622 O.3       1 MOL        -0.4252
      5 C4          3.5918   -1.7167    3.0680 C.3       1 MOL         0.1311
      6 C5          4.8244   -1.4000    3.9007 C.3       1 MOL        -0.0848
      7 C6          6.0747   -2.0393    3.3239 C.3       1 MOL        -0.0928
      8 H1         -2.0271   -0.3798    3.3870 H         1 MOL         0.0347
      9 H2         -1.1368   -0.4991    1.8597 H         1 MOL         0.0347
     10 H3         -1.4321   -1.9547    2.8259 H         1 MOL         0.0347
     11 H4          0.0265   -1.0085    4.6479 H         1 MOL         0.0534
     12 H5          0.3123    0.4227    3.6810 H         1 MOL         0.0534
     13 H6          1.1169   -2.4321    2.8914 H         1 MOL         0.0240
     14 H7          1.4076   -0.9751    1.9072 H         1 MOL         0.0240
     15 H8          3.7021   -1.3389    2.0467 H         1 MOL         0.0240
     16 H9          3.4114   -2.7957    3.0313 H         1 MOL         0.0240
     17 H10         4.9570   -0.3133    3.9634 H         1 MOL         0.0534
     18 H11         4.6713   -1.7443    4.9306 H         1 MOL         0.0534
     19 H12         6.9527   -1.8027    3.9333 H         1 MOL         0.0347
     20 H13         5.9654   -3.1279    3.2942 H         1 MOL         0.0347
     21 H14         6.2596   -1.6886    2.3037 H         1 MOL         0.0347
@<TRIPOS>BOND
     1    1    2 1
     2    2    3 1
     3    3    4 1
     4    4    5 1
     5    5    6 1
     6    6    7 1
     7    1    8 1
     8    1    9 1
     9    1   10 1
    10    2   11 1
    11    2   12 1
    12    3   13 1
    13    3   14 1
    14    5   15 1
    15    5   16 1
    16    6   17 1
    17    6   18 1
    18    7   19 1
    19    7   20 1
    20    7   21 1
