@<TRIPOS>MOLECULE
pentan-3-one
   16    15     0     0     0
SMALL
USER_CHARGES

@<TRIPOS>ATOM
      1 C1          0.1179    0.0606   -1.0835 C.3       1 MOL        -0.0872
      2 C2         -0.9876    0.8895   -1.7119 C.3       1 MOL        -0.1808
      3 C3         -2.3713    0.3190   -1.4483 C.2       1 MOL         0.5590
      4 O1         -2.5441   -0.7069   -0.7921 O.2       1 MOL        -0.5284
      5 C4         -3.5272    1.1011   -2.0503 C.3       1 MOL        -0.1808
      6 C5         -4.8776    0.4769   -1.7491 C.3       1 MOL        -0.0872
      7 H1          1.0953    0.5047   -1.2965 H         1 MOL         0.0431
      8 H2         -0.0026    0.0037    0.0034 H         1 MOL         0.0431
      9 H3          0.1139   -0.9620   -1.4753 H         1 MOL         0.0431
     10 H4         -0.9556    1.9072   -1.3090 H         1 MOL         0.0617
     11 H5         -0.8384    0.9362   -2.7956 H         1 MOL         0.0617
     12 H6         -3.3798    1.1473   -3.1342 H         1 MOL         0.0617
     13 H7         -3.4969    2.1190   -1.6478 H         1 MOL         0.0617
     14 H8         -5.6898    1.0610   -2.1946 H         1 MOL         0.0431
     15 H9         -5.0548    0.4259   -0.6696 H         1 MOL         0.0431
     16 H10        -4.9261   -0.5394   -2.1521 H         1 MOL         0.0431
@<TRIPOS>BOND
     1    1    2 1
     2    2    3 1
     3    3    4 2
     4    3    5 1
     5    5    6 1
     6    1    7 1
     7    1    8 1
     8    1    9 1
     9    2   10 1
    10    2   11 1
    11    5   12 1
    12    5   13 1
    13    6   14 1
    14    6   15 1
    15    6   16 1
