@<TRIPOS>MOLECULE
4-fluorophenol
   13    13     0     0     0
SMALL
USER_CHARGES

@<TRIPOS>ATOM
      1 C1          1.8851   -1.0363   -0.1124 C.ar      1 MOL        -0.1618
      2 C2          2.9210   -1.6309    0.6081 C.ar      1 MOL        -0.1285
      3 C3          2.8783   -1.6520    2.0022 C.ar      1 MOL         0.0884
      4 C4          1.7997   -1.0786    2.6757 C.ar      1 MOL        -0.1285
      5 C5          0.7638   -0.4841    1.9551 C.ar      1 MOL        -0.1618
      6 C6          0.8066   -0.4630    0.5610 C.ar      1 MOL         0.1110
      7 O1         -0.2047    0.1169   -0.1414 O.3       1 MOL        -0.4942
      8 F1          3.8731   -2.2232    2.6937 F         1 MOL        -0.1415
      9 H1          1.9242   -1.0237   -1.1984 H         1 MOL         0.1477
     10 H2          3.7604   -2.0783    0.0842 H         1 MOL         0.1504
     11 H3          1.7667   -1.0960    3.7611 H         1 MOL         0.1504
     12 H4         -0.0743   -0.0401    2.4849 H         1 MOL         0.1477
     13 H5         -0.0325    0.0525   -1.0944 H         1 MOL         0.4209
@<TRIPOS>BOND
     1    1    6 ar
     2    1    2 ar
     3    2    3 ar
     4    3    4 ar
     5    4    5 ar
     6    5    6 ar
     7    6    7 1
     8    3    8 1
     9    1    9 1
    10    2   10 1
    11    4   11 1
    12    5   12 1
    13    7   13 1
