@<TRIPOS>MOLECULE
1,2,3,4,5-pentachloro-6-(2,3,4,5,6-pentachlorophenyl)benzene
   22    23     0     0     0
SMALL
USER_CHARGES

@<TRIPOS>ATOM
      1 C1          1.8851   -1.0363   -0.1124 C.ar      1 MOL        -0.0292
      2 C2          2.9210   -1.6309    0.6081 C.ar      1 MOL         0.0530
      3 C3          2.8783   -1.6520    2.0022 C.ar      1 MOL         0.0160
      4 C4          1.7997   -1.0786    2.6757 C.ar      1 MOL         0.0375
      5 C5          0.7638   -0.4841    1.9551 C.ar      1 MOL         0.0160
      6 C6          0.8066   -0.4630    0.5610 C.ar      1 MOL         0.0530
      7 Cl1        -0.4830    0.2773   -0.3508 Cl        1 MOL        -0.0323
      8 Cl2        -0.5846    0.2338    2.7946 Cl        1 MOL        -0.0274
      9 Cl3         1.7475   -1.1035    4.4183 Cl        1 MOL        -0.0269
     10 Cl4         4.1753   -2.3942    2.9003 Cl        1 MOL        -0.0274
     11 Cl5         4.2636   -2.3453   -0.2451 Cl        1 MOL        -0.0323
     12 C7          1.9292   -1.0158   -1.5692 C.ar      1 MOL        -0.0291
     13 C8          2.5329    0.0519   -2.2335 C.ar      1 MOL         0.0530
     14 C9          2.5739    0.0725   -3.6276 C.ar      1 MOL         0.0160
     15 C10         2.0111   -0.9745   -4.3575 C.ar      1 MOL         0.0375
     16 C11         1.4074   -2.0422   -3.6932 C.ar      1 MOL         0.0160
     17 C12         1.3664   -2.0628   -2.2990 C.ar      1 MOL         0.0530
     18 Cl6         0.6140   -3.3923   -1.4573 Cl        1 MOL        -0.0323
     19 Cl7         0.7042   -3.3522   -4.6031 Cl        1 MOL        -0.0274
     20 Cl8         2.0642   -0.9494   -6.1001 Cl        1 MOL        -0.0269
     21 Cl9         3.3308    1.4074   -4.4552 Cl        1 MOL        -0.0274
     22 Cl10        3.2321    1.3556   -1.3102 Cl        1 MOL        -0.0323
@<TRIPOS>BOND
     1    1    6 ar
     2    1    2 ar
     3    2    3 ar
     4    3    4 ar
     5    4    5 ar
     6    5    6 ar
     7    6    7 1
     8    5    8 1
     9    4    9 1
    10    3   10 1
    11    2   11 1
    12    1   12 1
    13   12   17 ar
    14   12   13 ar
    15   13   14 ar
    16   14   15 ar
    17   15   16 ar
    18   16   17 ar
    19   17   18 1
    20   16   19 1
    21   15   20 1
    22   14   21 1
    23   13   22 1
