@<TRIPOS>MOLECULE
2-[(1R)-1-methylpropyl]-4,6-dinitro-phenol
   29    29     0     0     0
SMALL
USER_CHARGES

@<TRIPOS>ATOM
      1 C1         -0.1704    3.0593    2.3977 C.3       1 MOL        -0.0958
      2 C2          0.0340    1.6084    1.9791 C.3       1 MOL        -0.0747
      3 C3         -0.9885    0.6449    2.6154 C.3       1 MOL        -0.0245
      4 H1         -1.9881    0.9680    2.2938 H         1 MOL         0.0803
      5 C4         -0.7897   -0.7770    2.0762 C.3       1 MOL        -0.0935
      6 C5         -0.9440    0.6412    4.1338 C.ar      1 MOL        -0.0929
      7 C6          0.2384    0.2784    4.7788 C.ar      1 MOL        -0.0184
      8 C7          0.2986    0.2707    6.1723 C.ar      1 MOL        -0.2105
      9 C8         -0.8236    0.6256    6.9209 C.ar      1 MOL         0.0036
     10 C9         -2.0060    0.9883    6.2759 C.ar      1 MOL        -0.2535
     11 C10        -2.0662    0.9960    4.8824 C.ar      1 MOL         0.2201
     12 O1         -3.2191    1.3519    4.2443 O.3       1 MOL        -0.4674
     13 N1         -3.1397    1.3470    7.0562 N.pl3     1 MOL         0.3026
     14 O2         -3.9485    0.4517    7.3968 O.2       1 MOL        -0.1787
     15 O3         -3.2966    2.5478    7.3802 O.3       1 MOL        -0.1787
     16 N2          1.5016   -0.1012    6.8289 N.pl3     1 MOL         0.3220
     17 O4          1.5346   -0.1014    8.0832 O.2       1 MOL        -0.1994
     18 O5          2.4987   -0.4192    6.1368 O.3       1 MOL        -0.1994
     19 H2          0.5797    3.6969    1.9186 H         1 MOL         0.0382
     20 H3         -1.1574    3.4284    2.1029 H         1 MOL         0.0382
     21 H4         -0.0678    3.1729    3.4816 H         1 MOL         0.0382
     22 H5          0.0064    1.5442    0.8848 H         1 MOL         0.0462
     23 H6          1.0447    1.3075    2.2827 H         1 MOL         0.0462
     24 H7         -1.5043   -1.4835    2.5124 H         1 MOL         0.0428
     25 H8         -0.9221   -0.7988    0.9891 H         1 MOL         0.0428
     26 H9          0.2195   -1.1429    2.2968 H         1 MOL         0.0428
     27 H10         1.1120    0.0022    4.1921 H         1 MOL         0.1858
     28 H11        -0.7759    0.6196    8.0085 H         1 MOL         0.1933
     29 H12        -3.9043    1.5716    4.8936 H         1 MOL         0.4444
@<TRIPOS>BOND
     1    1    2 1
     2    2    3 1
     3    3    4 1
     4    3    5 1
     5    3    6 1
     6    6   11 ar
     7    6    7 ar
     8    7    8 ar
     9    8    9 ar
    10    9   10 ar
    11   10   11 ar
    12   11   12 1
    13   10   13 1
    14   13   14 2
    15   13   15 1
    16    8   16 1
    17   16   17 2
    18   16   18 1
    19    1   19 1
    20    1   20 1
    21    1   21 1
    22    2   22 1
    23    2   23 1
    24    5   24 1
    25    5   25 1
    26    5   26 1
    27    7   27 1
    28    9   28 1
    29   12   29 1
