@<TRIPOS>MOLECULE
acetonitrile
    6     5     0     0     0
SMALL
USER_CHARGES

@<TRIPOS>ATOM
      1 C1          0.4477    0.2839    0.9571 C.3       1 MOL        -0.0445
      2 C2         -0.2062    1.4713    1.5045 C.1       1 MOL         0.2081
      3 N1         -0.7251    2.4137    1.9390 N.1       1 MOL        -0.3759
      4 H1         -0.2827   -0.5070    0.7620 H         1 MOL         0.0708
      5 H2          1.1929   -0.1068    1.6564 H         1 MOL         0.0708
      6 H3          0.9545    0.5181    0.0162 H         1 MOL         0.0708
@<TRIPOS>BOND
     1    1    2 1
     2    2    3 3
     3    1    4 1
     4    1    5 1
     5    1    6 1
