@<TRIPOS>MOLECULE
octane
   26    25     0     0     0
SMALL
USER_CHARGES

@<TRIPOS>ATOM
      1 C1          0.5808   -1.0132    0.8656 C.3       1 MOL        -0.0922
      2 C2          0.2770   -0.4863    2.2599 C.3       1 MOL        -0.0800
      3 C3          0.8896    0.8977    2.4784 C.3       1 MOL        -0.0793
      4 C4          0.6119    1.4737    3.8699 C.3       1 MOL        -0.0784
      5 C5          1.2248    2.8588    4.0888 C.3       1 MOL        -0.0784
      6 C6          0.9167    3.3849    5.4927 C.3       1 MOL        -0.0793
      7 C7          1.5276    4.7684    5.7146 C.3       1 MOL        -0.0800
      8 C8          1.2238    5.2945    7.1082 C.3       1 MOL        -0.0921
      9 H1          0.1395   -2.0039    0.7162 H         1 MOL         0.0325
     10 H2          0.1861   -0.3410    0.0969 H         1 MOL         0.0325
     11 H3          1.6624   -1.0973    0.7199 H         1 MOL         0.0325
     12 H4         -0.8097   -0.4470    2.3891 H         1 MOL         0.0379
     13 H5          0.6694   -1.1898    3.0032 H         1 MOL         0.0379
     14 H6          1.9769    0.8324    2.3471 H         1 MOL         0.0389
     15 H7          0.5211    1.5915    1.7129 H         1 MOL         0.0389
     16 H8         -0.4707    1.5163    4.0409 H         1 MOL         0.0394
     17 H9          1.0217    0.7796    4.6143 H         1 MOL         0.0394
     18 H10         0.8325    3.5648    3.3483 H         1 MOL         0.0394
     19 H11         2.3109    2.8070    3.9468 H         1 MOL         0.0394
     20 H12         1.3092    2.6862    6.2415 H         1 MOL         0.0389
     21 H13        -0.1695    3.4354    5.6357 H         1 MOL         0.0389
     22 H14         1.1357    5.4724    4.9713 H         1 MOL         0.0379
     23 H15         2.6141    4.7223    5.5766 H         1 MOL         0.0379
     24 H16         1.6699    6.2845    7.2450 H         1 MOL         0.0325
     25 H17         1.6311    4.6291    7.8762 H         1 MOL         0.0325
     26 H18         0.1444    5.3833    7.2673 H         1 MOL         0.0325
@<TRIPOS>BOND
     1    1    2 1
     2    2    3 1
     3    3    4 1
     4    4    5 1
     5    5    6 1
     6    6    7 1
     7    7    8 1
     8    1    9 1
     9    1   10 1
    10    1   11 1
    11    2   12 1
    12    2   13 1
    13    3   14 1
    14    3   15 1
    15    4   16 1
    16    4   17 1
    17    5   18 1
    18    5   19 1
    19    6   20 1
    20    6   21 1
    21    7   22 1
    22    7   23 1
    23    8   24 1
    24    8   25 1
    25    8   26 1
